<connections><connection from="A2TL" to="TL2C" fromLane="0" toLane="0" /><connection from="A2TL" to="TL2D" fromLane="0" toLane="0" /><connection from="A2TL" to="TL2B" fromLane="1" toLane="1" /><connection from="A2TL" to="TL2C" fromLane="1" toLane="1" /><connection from="B2TL" to="TL2C" fromLane="0" toLane="0" /><connection from="B2TL" to="TL2D" fromLane="0" toLane="0" /><connection from="B2TL" to="TL2C" fromLane="1" toLane="1" /><connection from="C2TL" to="TL2A" fromLane="0" toLane="0" /><connection from="C2TL" to="TL2B" fromLane="0" toLane="0" /><connection from="C2TL" to="TL2D" fromLane="1" toLane="0" /><connection from="C2TL" to="TL2A" fromLane="1" toLane="1" /><connection from="D2TL" to="TL2B" fromLane="0" toLane="0" /><connection from="D2TL" to="TL2C" fromLane="0" toLane="0" /><connection from="TL2A" to="A2AB" fromLane="0" toLane="0" /><connection from="TL2A" to="A2AC" fromLane="0" toLane="0" /><connection from="TL2A" to="A2AA" fromLane="1" toLane="1" /><connection from="TL2A" to="A2AB" fromLane="1" toLane="1" /><connection from="AA2A" to="A2AC" fromLane="0" toLane="0" /><connection from="AA2A" to="A2TL" fromLane="0" toLane="0" /><connection from="AA2A" to="A2AB" fromLane="1" toLane="1" /><connection from="AA2A" to="A2AC" fromLane="1" toLane="1" /><connection from="AB2A" to="A2TL" fromLane="0" toLane="0" /><connection from="AB2A" to="A2AA" fromLane="0" toLane="0" /><connection from="AB2A" to="A2AC" fromLane="1" toLane="1" /><connection from="AB2A" to="A2TL" fromLane="1" toLane="1" /><connection from="AC2A" to="A2AA" fromLane="0" toLane="0" /><connection from="AC2A" to="A2AB" fromLane="0" toLane="0" /><connection from="AC2A" to="A2TL" fromLane="1" toLane="1" /><connection from="AC2A" to="A2AA" fromLane="1" toLane="1" /><connection from="TL2B" to="B2BB" fromLane="0" toLane="0" /><connection from="TL2B" to="B2BC" fromLane="0" toLane="0" /><connection from="TL2B" to="B2BA" fromLane="1" toLane="1" /><connection from="TL2B" to="B2BB" fromLane="1" toLane="1" /><connection from="BA2B" to="B2BC" fromLane="0" toLane="0" /><connection from="BA2B" to="B2TL" fromLane="0" toLane="0" /><connection from="BA2B" to="B2BB" fromLane="1" toLane="1" /><connection from="BA2B" to="B2BC" fromLane="1" toLane="1" /><connection from="BB2B" to="B2TL" fromLane="0" toLane="0" /><connection from="BB2B" to="B2BA" fromLane="0" toLane="0" /><connection from="BB2B" to="B2BC" fromLane="1" toLane="1" /><connection from="BB2B" to="B2TL" fromLane="1" toLane="1" /><connection from="BC2B" to="B2BA" fromLane="0" toLane="0" /><connection from="BC2B" to="B2BB" fromLane="0" toLane="0" /><connection from="BC2B" to="B2TL" fromLane="1" toLane="1" /><connection from="BC2B" to="B2BA" fromLane="1" toLane="1" /><connection from="TL2C" to="C2CB" fromLane="0" toLane="0" /><connection from="TL2C" to="C2CC" fromLane="0" toLane="0" /><connection from="TL2C" to="C2CA" fromLane="1" toLane="1" /><connection from="TL2C" to="C2CB" fromLane="1" toLane="1" /><connection from="CA2C" to="C2CC" fromLane="0" toLane="0" /><connection from="CA2C" to="C2TL" fromLane="0" toLane="0" /><connection from="CA2C" to="C2CB" fromLane="1" toLane="1" /><connection from="CA2C" to="C2CC" fromLane="1" toLane="1" /><connection from="CB2C" to="C2TL" fromLane="0" toLane="0" /><connection from="CB2C" to="C2CA" fromLane="0" toLane="0" /><connection from="CB2C" to="C2CC" fromLane="1" toLane="1" /><connection from="CB2C" to="C2TL" fromLane="1" toLane="1" /><connection from="CC2C" to="C2CA" fromLane="0" toLane="0" /><connection from="CC2C" to="C2CB" fromLane="0" toLane="0" /><connection from="CC2C" to="C2TL" fromLane="1" toLane="1" /><connection from="CC2C" to="C2CA" fromLane="1" toLane="1" /><connection from="TL2D" to="D2DB" fromLane="0" toLane="0" /><connection from="TL2D" to="D2DC" fromLane="0" toLane="0" /><connection from="DA2D" to="D2DC" fromLane="0" toLane="0" /><connection from="DA2D" to="D2TL" fromLane="0" toLane="0" /><connection from="DB2D" to="D2TL" fromLane="0" toLane="0" /><connection from="DB2D" to="D2DA" fromLane="0" toLane="0" /><connection from="DC2D" to="D2DA" fromLane="0" toLane="0" /><connection from="DC2D" to="D2DB" fromLane="0" toLane="0" /></connections>