<edges><edge id="A2TL" from="A" to="TL" speed="40" numLanes="1" /><edge id="TL2A" from="TL" to="A" speed="40" numLanes="2" /><edge id="AA2A" from="AA" to="A" speed="40" numLanes="2" /><edge id="A2AA" from="A" to="AA" speed="40" numLanes="1" /><edge id="AB2A" from="AB" to="A" speed="40" numLanes="2" /><edge id="A2AB" from="A" to="AB" speed="40" numLanes="1" /><edge id="AC2A" from="AC" to="A" speed="40" numLanes="2" /><edge id="A2AC" from="A" to="AC" speed="40" numLanes="1" /><edge id="B2TL" from="B" to="TL" speed="45" numLanes="2" /><edge id="TL2B" from="TL" to="B" speed="45" numLanes="2" /><edge id="BA2B" from="BA" to="B" speed="45" numLanes="2" /><edge id="B2BA" from="B" to="BA" speed="45" numLanes="2" /><edge id="BB2B" from="BB" to="B" speed="45" numLanes="2" /><edge id="B2BB" from="B" to="BB" speed="45" numLanes="2" /><edge id="BC2B" from="BC" to="B" speed="45" numLanes="2" /><edge id="B2BC" from="B" to="BC" speed="45" numLanes="2" /><edge id="C2TL" from="C" to="TL" speed="40" numLanes="1" /><edge id="TL2C" from="TL" to="C" speed="40" numLanes="1" /><edge id="CA2C" from="CA" to="C" speed="40" numLanes="1" /><edge id="C2CA" from="C" to="CA" speed="40" numLanes="1" /><edge id="CB2C" from="CB" to="C" speed="40" numLanes="1" /><edge id="C2CB" from="C" to="CB" speed="40" numLanes="1" /><edge id="CC2C" from="CC" to="C" speed="40" numLanes="1" /><edge id="C2CC" from="C" to="CC" speed="40" numLanes="1" /><edge id="D2TL" from="D" to="TL" speed="50" numLanes="2" /><edge id="TL2D" from="TL" to="D" speed="50" numLanes="3" /><edge id="DA2D" from="DA" to="D" speed="50" numLanes="3" /><edge id="D2DA" from="D" to="DA" speed="50" numLanes="2" /><edge id="DB2D" from="DB" to="D" speed="50" numLanes="3" /><edge id="D2DB" from="D" to="DB" speed="50" numLanes="2" /><edge id="DC2D" from="DC" to="D" speed="50" numLanes="3" /><edge id="D2DC" from="D" to="DC" speed="50" numLanes="2" /></edges>