<?xml version="1.0" encoding="UTF-8"?>

<!-- generated on 2022-10-07 17:23:06 by Eclipse SUMO netconvert Version 1.14.1
<configuration xmlns:xsi="http://www.w3.org/2001/XMLSchema-instance" xsi:noNamespaceSchemaLocation="http://sumo.dlr.de/xsd/netconvertConfiguration.xsd">

    <input>
        <node-files value="nodes.nod.xml"/>
        <edge-files value="edges.edg.xml"/>
        <connection-files value="connections.con.xml"/>
    </input>

    <report>
        <verbose value="true"/>
    </report>

</configuration>
-->

<net version="1.9" junctionCornerDetail="5" limitTurnSpeed="5.50" xmlns:xsi="http://www.w3.org/2001/XMLSchema-instance" xsi:noNamespaceSchemaLocation="http://sumo.dlr.de/xsd/net_file.xsd">

    <location netOffset="633.57,621.39" convBoundary="0.00,0.00,1269.98,1262.81" origBoundary="-633.57,-621.39,636.41,641.42" projParameter="!"/>

    <edge id=":A_0" function="internal">
        <lane id=":A_0_0" index="0" speed="7.33" length="11.73" shape="625.57,955.70 625.22,951.85 624.17,949.10 622.42,947.45 619.97,946.90"/>
    </edge>
    <edge id=":A_1" function="internal">
        <lane id=":A_1_0" index="0" speed="40.00" length="27.20" shape="625.57,955.70 625.57,928.50"/>
        <lane id=":A_1_1" index="1" speed="40.00" length="27.20" shape="628.77,955.70 628.77,928.50"/>
    </edge>
    <edge id=":A_3" function="internal">
        <lane id=":A_3_0" index="0" speed="10.36" length="7.16" shape="631.97,955.70 632.92,949.05 633.14,948.67"/>
    </edge>
    <edge id=":A_16" function="internal">
        <lane id=":A_16_0" index="0" speed="10.36" length="17.36" shape="633.14,948.67 635.77,944.30 640.52,941.45 647.17,940.50"/>
    </edge>
    <edge id=":A_4" function="internal">
        <lane id=":A_4_0" index="0" speed="7.33" length="11.73" shape="647.17,950.10 643.32,950.45 640.57,951.50 638.92,953.25 638.37,955.70"/>
    </edge>
    <edge id=":A_5" function="internal">
        <lane id=":A_5_0" index="0" speed="40.00" length="27.43" shape="647.17,950.10 638.55,949.60 632.18,948.50 626.51,947.40 619.97,946.90"/>
        <lane id=":A_5_1" index="1" speed="40.00" length="27.43" shape="647.17,946.90 638.55,946.40 632.18,945.30 626.51,944.20 619.97,943.70"/>
    </edge>
    <edge id=":A_7" function="internal">
        <lane id=":A_7_0" index="0" speed="10.88" length="9.75" shape="647.17,943.70 639.12,942.75 637.64,942.02"/>
    </edge>
    <edge id=":A_17" function="internal">
        <lane id=":A_17_0" index="0" speed="10.88" length="17.39" shape="637.64,942.02 633.37,939.90 629.92,935.15 628.77,928.50"/>
    </edge>
    <edge id=":A_8" function="internal">
        <lane id=":A_8_0" index="0" speed="7.33" length="11.73" shape="641.57,928.50 641.92,932.35 642.97,935.10 644.72,936.75 647.17,937.30"/>
    </edge>
    <edge id=":A_9" function="internal">
        <lane id=":A_9_0" index="0" speed="40.00" length="27.43" shape="641.57,928.50 641.07,937.12 639.97,943.48 638.87,949.15 638.37,955.70"/>
        <lane id=":A_9_1" index="1" speed="40.00" length="27.43" shape="638.37,928.50 637.87,937.12 636.77,943.48 635.67,949.15 635.17,955.70"/>
    </edge>
    <edge id=":A_11" function="internal">
        <lane id=":A_11_0" index="0" speed="10.36" length="12.07" shape="635.17,928.50 634.22,935.15 631.46,939.74"/>
    </edge>
    <edge id=":A_18" function="internal">
        <lane id=":A_18_0" index="0" speed="10.36" length="12.44" shape="631.46,939.74 631.37,939.90 626.62,942.75 619.97,943.70"/>
    </edge>
    <edge id=":A_12" function="internal">
        <lane id=":A_12_0" index="0" speed="6.51" length="9.03" shape="619.97,934.10 622.42,933.75 624.17,932.70 625.22,930.95 625.57,928.50"/>
    </edge>
    <edge id=":A_13" function="internal">
        <lane id=":A_13_0" index="0" speed="40.00" length="27.43" shape="619.97,934.10 628.59,934.60 634.95,935.70 640.62,936.80 647.17,937.30"/>
        <lane id=":A_13_1" index="1" speed="40.00" length="27.43" shape="619.97,937.30 628.59,937.80 634.95,938.90 640.62,940.00 647.17,940.50"/>
    </edge>
    <edge id=":A_15" function="internal">
        <lane id=":A_15_0" index="0" speed="10.36" length="7.16" shape="619.97,940.50 626.62,941.45 626.99,941.67"/>
    </edge>
    <edge id=":A_19" function="internal">
        <lane id=":A_19_0" index="0" speed="10.36" length="17.36" shape="626.99,941.67 631.37,944.30 634.22,949.05 635.17,955.70"/>
    </edge>
    <edge id=":AA_0" function="internal">
        <lane id=":AA_0_0" index="0" speed="3.65" length="4.67" shape="312.86,943.70 311.66,942.90 311.26,942.10 311.66,941.30 312.86,940.50"/>
    </edge>
    <edge id=":AB_0" function="internal">
        <lane id=":AB_0_0" index="0" speed="3.65" length="4.67" shape="635.17,1262.81 634.37,1264.01 633.57,1264.41 632.77,1264.01 631.97,1262.81"/>
    </edge>
    <edge id=":AC_0" function="internal">
        <lane id=":AC_0_0" index="0" speed="3.65" length="4.67" shape="954.28,940.50 955.48,941.30 955.88,942.10 955.48,942.90 954.28,943.70"/>
    </edge>
    <edge id=":B_0" function="internal">
        <lane id=":B_0_0" index="0" speed="6.51" length="9.03" shape="946.97,631.79 946.62,629.34 945.57,627.59 943.82,626.54 941.37,626.19"/>
    </edge>
    <edge id=":B_1" function="internal">
        <lane id=":B_1_0" index="0" speed="40.00" length="20.80" shape="946.97,631.79 946.97,610.99"/>
        <lane id=":B_1_1" index="1" speed="40.00" length="20.80" shape="950.17,631.79 950.17,610.99"/>
    </edge>
    <edge id=":B_3" function="internal">
        <lane id=":B_3_0" index="0" speed="9.26" length="5.01" shape="950.17,631.79 950.88,626.82"/>
    </edge>
    <edge id=":B_16" function="internal">
        <lane id=":B_16_0" index="0" speed="9.26" length="14.34" shape="950.88,626.82 950.92,626.54 953.17,622.79 956.92,620.54 962.17,619.79"/>
    </edge>
    <edge id=":B_4" function="internal">
        <lane id=":B_4_0" index="0" speed="6.51" length="9.03" shape="962.17,626.19 959.72,626.54 957.97,627.59 956.92,629.34 956.57,631.79"/>
    </edge>
    <edge id=":B_5" function="internal">
        <lane id=":B_5_0" index="0" speed="40.00" length="20.80" shape="962.17,626.19 941.37,626.19"/>
        <lane id=":B_5_1" index="1" speed="40.00" length="20.80" shape="962.17,622.99 941.37,622.99"/>
    </edge>
    <edge id=":B_7" function="internal">
        <lane id=":B_7_0" index="0" speed="9.26" length="5.01" shape="962.17,622.99 957.21,622.28"/>
    </edge>
    <edge id=":B_17" function="internal">
        <lane id=":B_17_0" index="0" speed="9.26" length="14.34" shape="957.21,622.28 956.92,622.24 953.17,619.99 950.92,616.24 950.17,610.99"/>
    </edge>
    <edge id=":B_8" function="internal">
        <lane id=":B_8_0" index="0" speed="6.51" length="9.03" shape="956.57,610.99 956.92,613.44 957.97,615.19 959.72,616.24 962.17,616.59"/>
    </edge>
    <edge id=":B_9" function="internal">
        <lane id=":B_9_0" index="0" speed="40.00" length="20.80" shape="956.57,610.99 956.57,631.79"/>
        <lane id=":B_9_1" index="1" speed="40.00" length="20.80" shape="953.37,610.99 953.37,631.79"/>
    </edge>
    <edge id=":B_11" function="internal">
        <lane id=":B_11_0" index="0" speed="9.26" length="5.01" shape="953.37,610.99 952.66,615.95"/>
    </edge>
    <edge id=":B_18" function="internal">
        <lane id=":B_18_0" index="0" speed="9.26" length="14.34" shape="952.66,615.95 952.62,616.24 950.37,619.99 946.62,622.24 941.37,622.99"/>
    </edge>
    <edge id=":B_12" function="internal">
        <lane id=":B_12_0" index="0" speed="6.51" length="9.03" shape="941.37,616.59 943.82,616.24 945.57,615.19 946.62,613.44 946.97,610.99"/>
    </edge>
    <edge id=":B_13" function="internal">
        <lane id=":B_13_0" index="0" speed="40.00" length="20.80" shape="941.37,616.59 962.17,616.59"/>
        <lane id=":B_13_1" index="1" speed="40.00" length="20.80" shape="941.37,619.79 962.17,619.79"/>
    </edge>
    <edge id=":B_15" function="internal">
        <lane id=":B_15_0" index="0" speed="9.26" length="5.01" shape="941.37,619.79 946.34,620.50"/>
    </edge>
    <edge id=":B_19" function="internal">
        <lane id=":B_19_0" index="0" speed="9.26" length="14.34" shape="946.34,620.50 946.62,620.54 950.37,622.79 952.62,626.54 953.37,631.79"/>
    </edge>
    <edge id=":BA_0" function="internal">
        <lane id=":BA_0_0" index="0" speed="3.65" length="4.67" shape="953.37,939.59 952.57,940.79 951.77,941.19 950.97,940.79 950.17,939.59"/>
    </edge>
    <edge id=":BB_0" function="internal">
        <lane id=":BB_0_0" index="0" speed="3.65" length="4.67" shape="1269.98,619.79 1271.18,620.59 1271.58,621.39 1271.18,622.19 1269.98,622.99"/>
    </edge>
    <edge id=":BC_0" function="internal">
        <lane id=":BC_0_0" index="0" speed="3.65" length="4.67" shape="950.17,303.18 950.97,301.98 951.77,301.58 952.57,301.98 953.37,303.18"/>
    </edge>
    <edge id=":C_0" function="internal">
        <lane id=":C_0_0" index="0" speed="6.51" length="9.03" shape="628.77,321.09 628.42,318.64 627.37,316.89 625.62,315.84 623.17,315.49"/>
    </edge>
    <edge id=":C_1" function="internal">
        <lane id=":C_1_0" index="0" speed="40.00" length="20.80" shape="628.77,321.09 628.77,300.29"/>
        <lane id=":C_1_1" index="1" speed="40.00" length="20.80" shape="631.97,321.09 631.97,300.29"/>
    </edge>
    <edge id=":C_3" function="internal">
        <lane id=":C_3_0" index="0" speed="6.51" length="9.03" shape="643.97,315.49 641.52,315.84 639.77,316.89 638.72,318.64 638.37,321.09"/>
    </edge>
    <edge id=":C_4" function="internal">
        <lane id=":C_4_0" index="0" speed="40.00" length="20.80" shape="643.97,315.49 623.17,315.49"/>
        <lane id=":C_4_1" index="1" speed="40.00" length="20.80" shape="643.97,312.29 623.17,312.29"/>
    </edge>
    <edge id=":C_6" function="internal">
        <lane id=":C_6_0" index="0" speed="6.51" length="9.03" shape="638.37,300.29 638.72,302.74 639.77,304.49 641.52,305.54 643.97,305.89"/>
    </edge>
    <edge id=":C_7" function="internal">
        <lane id=":C_7_0" index="0" speed="40.00" length="20.80" shape="638.37,300.29 638.37,321.09"/>
        <lane id=":C_7_1" index="1" speed="40.00" length="20.80" shape="635.17,300.29 635.17,321.09"/>
    </edge>
    <edge id=":C_9" function="internal">
        <lane id=":C_9_0" index="0" speed="6.51" length="9.03" shape="623.17,305.89 625.62,305.54 627.37,304.49 628.42,302.74 628.77,300.29"/>
    </edge>
    <edge id=":C_10" function="internal">
        <lane id=":C_10_0" index="0" speed="40.00" length="20.80" shape="623.17,305.89 643.97,305.89"/>
        <lane id=":C_10_1" index="1" speed="40.00" length="20.80" shape="623.17,309.09 643.97,309.09"/>
    </edge>
    <edge id=":CA_0" function="internal">
        <lane id=":CA_0_0" index="0" speed="3.65" length="4.67" shape="944.26,309.09 945.46,309.89 945.86,310.69 945.46,311.49 944.26,312.29"/>
    </edge>
    <edge id=":CB_0" function="internal">
        <lane id=":CB_0_0" index="0" speed="3.65" length="4.67" shape="631.97,0.00 632.77,-1.20 633.57,-1.60 634.37,-1.20 635.17,0.00"/>
    </edge>
    <edge id=":CC_0" function="internal">
        <lane id=":CC_0_0" index="0" speed="3.65" length="4.67" shape="322.87,312.29 321.67,311.49 321.27,310.69 321.67,309.89 322.87,309.09"/>
    </edge>
    <edge id=":C_intern_0" function="internal">
        <lane id=":C_intern_0_0" index="0" speed="40.00" length="8.54" shape="638.37,567.39 638.87,569.85 639.97,571.39 641.07,572.92 641.57,575.39"/>
        <lane id=":C_intern_0_1" index="1" speed="40.00" length="8.54" shape="635.17,567.39 635.67,569.85 636.77,571.39 637.87,572.92 638.37,575.39"/>
        <lane id=":C_intern_0_2" index="2" speed="40.00" length="8.54" shape="635.17,567.39 635.17,575.39"/>
    </edge>
    <edge id=":D_0" function="internal">
        <lane id=":D_0_0" index="0" speed="6.51" length="9.03" shape="311.98,631.79 311.63,629.34 310.58,627.59 308.83,626.54 306.38,626.19"/>
    </edge>
    <edge id=":D_1" function="internal">
        <lane id=":D_1_0" index="0" speed="40.00" length="20.80" shape="311.98,631.79 311.98,610.99"/>
        <lane id=":D_1_1" index="1" speed="40.00" length="20.80" shape="315.18,631.79 315.18,610.99"/>
    </edge>
    <edge id=":D_3" function="internal">
        <lane id=":D_3_0" index="0" speed="9.26" length="5.01" shape="315.18,631.79 315.89,626.82"/>
    </edge>
    <edge id=":D_16" function="internal">
        <lane id=":D_16_0" index="0" speed="9.26" length="14.34" shape="315.89,626.82 315.93,626.54 318.18,622.79 321.93,620.54 327.18,619.79"/>
    </edge>
    <edge id=":D_4" function="internal">
        <lane id=":D_4_0" index="0" speed="6.51" length="9.03" shape="327.18,626.19 324.73,626.54 322.98,627.59 321.93,629.34 321.58,631.79"/>
    </edge>
    <edge id=":D_5" function="internal">
        <lane id=":D_5_0" index="0" speed="40.00" length="20.80" shape="327.18,626.19 306.38,626.19"/>
        <lane id=":D_5_1" index="1" speed="40.00" length="20.80" shape="327.18,622.99 306.38,622.99"/>
    </edge>
    <edge id=":D_7" function="internal">
        <lane id=":D_7_0" index="0" speed="9.26" length="5.01" shape="327.18,622.99 322.22,622.28"/>
    </edge>
    <edge id=":D_17" function="internal">
        <lane id=":D_17_0" index="0" speed="9.26" length="14.34" shape="322.22,622.28 321.93,622.24 318.18,619.99 315.93,616.24 315.18,610.99"/>
    </edge>
    <edge id=":D_8" function="internal">
        <lane id=":D_8_0" index="0" speed="6.51" length="9.03" shape="321.58,610.99 321.93,613.44 322.98,615.19 324.73,616.24 327.18,616.59"/>
    </edge>
    <edge id=":D_9" function="internal">
        <lane id=":D_9_0" index="0" speed="40.00" length="20.80" shape="321.58,610.99 321.58,631.79"/>
        <lane id=":D_9_1" index="1" speed="40.00" length="20.80" shape="318.38,610.99 318.38,631.79"/>
    </edge>
    <edge id=":D_11" function="internal">
        <lane id=":D_11_0" index="0" speed="9.26" length="5.01" shape="318.38,610.99 317.67,615.95"/>
    </edge>
    <edge id=":D_18" function="internal">
        <lane id=":D_18_0" index="0" speed="9.26" length="14.34" shape="317.67,615.95 317.63,616.24 315.38,619.99 311.63,622.24 306.38,622.99"/>
    </edge>
    <edge id=":D_12" function="internal">
        <lane id=":D_12_0" index="0" speed="6.51" length="9.03" shape="306.38,616.59 308.83,616.24 310.58,615.19 311.63,613.44 311.98,610.99"/>
    </edge>
    <edge id=":D_13" function="internal">
        <lane id=":D_13_0" index="0" speed="40.00" length="20.80" shape="306.38,616.59 327.18,616.59"/>
        <lane id=":D_13_1" index="1" speed="40.00" length="20.80" shape="306.38,619.79 327.18,619.79"/>
    </edge>
    <edge id=":D_15" function="internal">
        <lane id=":D_15_0" index="0" speed="9.26" length="5.01" shape="306.38,619.79 311.35,620.50"/>
    </edge>
    <edge id=":D_19" function="internal">
        <lane id=":D_19_0" index="0" speed="9.26" length="14.34" shape="311.35,620.50 311.63,620.54 315.38,622.79 317.63,626.54 318.38,631.79"/>
    </edge>
    <edge id=":DA_0" function="internal">
        <lane id=":DA_0_0" index="0" speed="3.65" length="4.67" shape="315.18,304.60 315.98,303.40 316.78,303.00 317.58,303.40 318.38,304.60"/>
    </edge>
    <edge id=":DB_0" function="internal">
        <lane id=":DB_0_0" index="0" speed="3.65" length="4.67" shape="-0.00,622.99 -1.20,622.19 -1.60,621.39 -1.20,620.59 -0.00,619.79"/>
    </edge>
    <edge id=":DC_0" function="internal">
        <lane id=":DC_0_0" index="0" speed="3.65" length="4.67" shape="318.38,938.17 317.58,939.37 316.78,939.77 315.98,939.37 315.18,938.17"/>
    </edge>
    <edge id=":TL_0" function="internal">
        <lane id=":TL_0_0" index="0" speed="6.51" length="9.03" shape="625.57,631.79 625.22,629.34 624.17,627.59 622.42,626.54 619.97,626.19"/>
    </edge>
    <edge id=":TL_1" function="internal">
        <lane id=":TL_1_0" index="0" speed="40.00" length="21.12" shape="625.57,631.79 626.07,625.50 627.17,621.19 628.27,616.98 628.77,610.99"/>
        <lane id=":TL_1_1" index="1" speed="40.00" length="21.12" shape="628.77,631.79 629.27,625.50 630.37,621.19 631.47,616.98 631.97,610.99"/>
    </edge>
    <edge id=":TL_3" function="internal">
        <lane id=":TL_3_0" index="0" speed="9.84" length="9.85" shape="631.97,631.79 632.92,626.54 635.65,622.94"/>
    </edge>
    <edge id=":TL_16" function="internal">
        <lane id=":TL_16_0" index="0" speed="9.84" length="12.14" shape="635.65,622.94 635.77,622.79 640.52,620.54 647.17,619.79"/>
    </edge>
    <edge id=":TL_4" function="internal">
        <lane id=":TL_4_0" index="0" speed="6.51" length="9.03" shape="647.17,626.19 644.72,626.54 642.97,627.59 641.92,629.34 641.57,631.79"/>
    </edge>
    <edge id=":TL_5" function="internal">
        <lane id=":TL_5_0" index="0" speed="40.00" length="27.20" shape="647.17,626.19 619.97,626.19"/>
        <lane id=":TL_5_1" index="1" speed="40.00" length="27.20" shape="647.17,622.99 619.97,622.99"/>
    </edge>
    <edge id=":TL_7" function="internal">
        <lane id=":TL_7_0" index="0" speed="9.84" length="6.30" shape="647.17,622.99 640.91,622.28"/>
    </edge>
    <edge id=":TL_17" function="internal">
        <lane id=":TL_17_0" index="0" speed="9.84" length="15.70" shape="640.91,622.28 640.52,622.24 635.77,619.99 632.92,616.24 631.97,610.99"/>
    </edge>
    <edge id=":TL_8" function="internal">
        <lane id=":TL_8_0" index="0" speed="6.51" length="9.03" shape="641.57,610.99 641.92,613.44 642.97,615.19 644.72,616.24 647.17,616.59"/>
    </edge>
    <edge id=":TL_9" function="internal">
        <lane id=":TL_9_0" index="0" speed="40.00" length="20.80" shape="641.57,610.99 641.57,631.79"/>
        <lane id=":TL_9_1" index="1" speed="40.00" length="20.80" shape="638.37,610.99 638.37,631.79"/>
    </edge>
    <edge id=":TL_11" function="internal">
        <lane id=":TL_11_0" index="0" speed="9.84" length="5.50" shape="635.17,610.99 634.22,616.24 634.12,616.37"/>
    </edge>
    <edge id=":TL_18" function="internal">
        <lane id=":TL_18_0" index="0" speed="9.84" length="16.49" shape="634.12,616.37 631.37,619.99 626.62,622.24 619.97,622.99"/>
    </edge>
    <edge id=":TL_12" function="internal">
        <lane id=":TL_12_0" index="0" speed="7.33" length="11.73" shape="619.97,616.59 623.82,616.24 626.57,615.19 628.22,613.44 628.77,610.99"/>
    </edge>
    <edge id=":TL_13" function="internal">
        <lane id=":TL_13_0" index="0" speed="40.00" length="27.20" shape="619.97,616.59 647.17,616.59"/>
        <lane id=":TL_13_1" index="1" speed="40.00" length="27.20" shape="619.97,619.79 647.17,619.79"/>
    </edge>
    <edge id=":TL_15" function="internal">
        <lane id=":TL_15_0" index="0" speed="10.41" length="7.59" shape="619.97,619.79 627.52,620.49"/>
    </edge>
    <edge id=":TL_19" function="internal">
        <lane id=":TL_19_0" index="0" speed="10.41" length="17.14" shape="627.52,620.49 628.02,620.54 633.77,622.79 637.22,626.54 638.37,631.79"/>
    </edge>

    <edge id="A2AA" from="A" to="AA" priority="-1">
        <lane id="A2AA_0" index="0" speed="40.00" length="307.11" shape="619.97,946.90 312.86,946.90"/>
        <lane id="A2AA_1" index="1" speed="40.00" length="307.11" shape="619.97,943.70 312.86,943.70"/>
    </edge>
    <edge id="A2AB" from="A" to="AB" priority="-1">
        <lane id="A2AB_0" index="0" speed="40.00" length="307.11" shape="638.37,955.70 638.37,1262.81"/>
        <lane id="A2AB_1" index="1" speed="40.00" length="307.11" shape="635.17,955.70 635.17,1262.81"/>
    </edge>
    <edge id="A2AC" from="A" to="AC" priority="-1">
        <lane id="A2AC_0" index="0" speed="40.00" length="307.11" shape="647.17,937.30 954.28,937.30"/>
        <lane id="A2AC_1" index="1" speed="40.00" length="307.11" shape="647.17,940.50 954.28,940.50"/>
    </edge>
    <edge id="A2TL" from="A" to="TL" priority="-1">
        <lane id="A2TL_0" index="0" speed="40.00" length="296.71" shape="625.57,928.50 625.57,631.79"/>
        <lane id="A2TL_1" index="1" speed="40.00" length="296.71" shape="628.77,928.50 628.77,631.79"/>
        <lane id="A2TL_2" index="2" speed="40.00" length="296.71" shape="631.97,928.50 631.97,631.79"/>
    </edge>
    <edge id="AA2A" from="AA" to="A" priority="-1">
        <lane id="AA2A_0" index="0" speed="40.00" length="307.11" shape="312.86,934.10 619.97,934.10"/>
        <lane id="AA2A_1" index="1" speed="40.00" length="307.11" shape="312.86,937.30 619.97,937.30"/>
        <lane id="AA2A_2" index="2" speed="40.00" length="307.11" shape="312.86,940.50 619.97,940.50"/>
    </edge>
    <edge id="AB2A" from="AB" to="A" priority="-1">
        <lane id="AB2A_0" index="0" speed="40.00" length="307.11" shape="625.57,1262.81 625.57,955.70"/>
        <lane id="AB2A_1" index="1" speed="40.00" length="307.11" shape="628.77,1262.81 628.77,955.70"/>
        <lane id="AB2A_2" index="2" speed="40.00" length="307.11" shape="631.97,1262.81 631.97,955.70"/>
    </edge>
    <edge id="AC2A" from="AC" to="A" priority="-1">
        <lane id="AC2A_0" index="0" speed="40.00" length="307.11" shape="954.28,950.10 647.17,950.10"/>
        <lane id="AC2A_1" index="1" speed="40.00" length="307.11" shape="954.28,946.90 647.17,946.90"/>
        <lane id="AC2A_2" index="2" speed="40.00" length="307.11" shape="954.28,943.70 647.17,943.70"/>
    </edge>
    <edge id="B2BA" from="B" to="BA" priority="-1">
        <lane id="B2BA_0" index="0" speed="40.00" length="307.81" shape="956.57,631.79 956.57,939.59"/>
        <lane id="B2BA_1" index="1" speed="40.00" length="307.81" shape="953.37,631.79 953.37,939.59"/>
    </edge>
    <edge id="B2BB" from="B" to="BB" priority="-1">
        <lane id="B2BB_0" index="0" speed="40.00" length="307.81" shape="962.17,616.59 1269.98,616.59"/>
        <lane id="B2BB_1" index="1" speed="40.00" length="307.81" shape="962.17,619.79 1269.98,619.79"/>
    </edge>
    <edge id="B2BC" from="B" to="BC" priority="-1">
        <lane id="B2BC_0" index="0" speed="40.00" length="307.81" shape="946.97,610.99 946.97,303.18"/>
        <lane id="B2BC_1" index="1" speed="40.00" length="307.81" shape="950.17,610.99 950.17,303.18"/>
    </edge>
    <edge id="B2TL" from="B" to="TL" priority="-1">
        <lane id="B2TL_0" index="0" speed="40.00" length="294.21" shape="941.37,626.19 647.17,626.19"/>
        <lane id="B2TL_1" index="1" speed="40.00" length="294.21" shape="941.37,622.99 647.17,622.99"/>
    </edge>
    <edge id="BA2B" from="BA" to="B" priority="-1">
        <lane id="BA2B_0" index="0" speed="40.00" length="307.81" shape="946.97,939.59 946.97,631.79"/>
        <lane id="BA2B_1" index="1" speed="40.00" length="307.81" shape="950.17,939.59 950.17,631.79"/>
    </edge>
    <edge id="BB2B" from="BB" to="B" priority="-1">
        <lane id="BB2B_0" index="0" speed="40.00" length="307.81" shape="1269.98,626.19 962.17,626.19"/>
        <lane id="BB2B_1" index="1" speed="40.00" length="307.81" shape="1269.98,622.99 962.17,622.99"/>
    </edge>
    <edge id="BC2B" from="BC" to="B" priority="-1">
        <lane id="BC2B_0" index="0" speed="40.00" length="307.81" shape="956.57,303.18 956.57,610.99"/>
        <lane id="BC2B_1" index="1" speed="40.00" length="307.81" shape="953.37,303.18 953.37,610.99"/>
    </edge>
    <edge id="C2CA" from="C" to="CA" priority="-1">
        <lane id="C2CA_0" index="0" speed="40.00" length="300.29" shape="643.97,305.89 944.26,305.89"/>
        <lane id="C2CA_1" index="1" speed="40.00" length="300.29" shape="643.97,309.09 944.26,309.09"/>
    </edge>
    <edge id="C2CB" from="C" to="CB" priority="-1">
        <lane id="C2CB_0" index="0" speed="40.00" length="300.29" shape="628.77,300.29 628.77,0.00"/>
        <lane id="C2CB_1" index="1" speed="40.00" length="300.29" shape="631.97,300.29 631.97,0.00"/>
    </edge>
    <edge id="C2CC" from="C" to="CC" priority="-1">
        <lane id="C2CC_0" index="0" speed="40.00" length="300.29" shape="623.17,315.49 322.87,315.49"/>
        <lane id="C2CC_1" index="1" speed="40.00" length="300.29" shape="623.17,312.29 322.87,312.29"/>
    </edge>
    <edge id="C2TL" from="C" to="C_intern" priority="-1">
        <lane id="C2TL_0" index="0" speed="40.00" length="246.29" shape="638.37,321.09 638.37,567.39"/>
        <lane id="C2TL_1" index="1" speed="40.00" length="246.29" shape="635.17,321.09 635.17,567.39"/>
    </edge>
    <edge id="C2TL_intern" from="C_intern" to="TL" priority="-1">
        <lane id="C2TL_intern_0" index="0" speed="40.00" length="35.60" shape="641.57,575.39 641.57,610.99"/>
        <lane id="C2TL_intern_1" index="1" speed="40.00" length="35.60" shape="638.37,575.39 638.37,610.99"/>
        <lane id="C2TL_intern_2" index="2" speed="40.00" length="35.60" shape="635.17,575.39 635.17,610.99"/>
    </edge>
    <edge id="CA2C" from="CA" to="C" priority="-1">
        <lane id="CA2C_0" index="0" speed="40.00" length="300.29" shape="944.26,315.49 643.97,315.49"/>
        <lane id="CA2C_1" index="1" speed="40.00" length="300.29" shape="944.26,312.29 643.97,312.29"/>
    </edge>
    <edge id="CB2C" from="CB" to="C" priority="-1">
        <lane id="CB2C_0" index="0" speed="40.00" length="300.29" shape="638.37,0.00 638.37,300.29"/>
        <lane id="CB2C_1" index="1" speed="40.00" length="300.29" shape="635.17,0.00 635.17,300.29"/>
    </edge>
    <edge id="CC2C" from="CC" to="C" priority="-1">
        <lane id="CC2C_0" index="0" speed="40.00" length="300.29" shape="322.87,305.89 623.17,305.89"/>
        <lane id="CC2C_1" index="1" speed="40.00" length="300.29" shape="322.87,309.09 623.17,309.09"/>
    </edge>
    <edge id="D2DA" from="D" to="DA" priority="-1">
        <lane id="D2DA_0" index="0" speed="40.00" length="306.38" shape="311.98,610.99 311.98,304.60"/>
        <lane id="D2DA_1" index="1" speed="40.00" length="306.38" shape="315.18,610.99 315.18,304.60"/>
    </edge>
    <edge id="D2DB" from="D" to="DB" priority="-1">
        <lane id="D2DB_0" index="0" speed="40.00" length="306.38" shape="306.38,626.19 -0.00,626.19"/>
        <lane id="D2DB_1" index="1" speed="40.00" length="306.38" shape="306.38,622.99 -0.00,622.99"/>
    </edge>
    <edge id="D2DC" from="D" to="DC" priority="-1">
        <lane id="D2DC_0" index="0" speed="40.00" length="306.38" shape="321.58,631.79 321.58,938.17"/>
        <lane id="D2DC_1" index="1" speed="40.00" length="306.38" shape="318.38,631.79 318.38,938.17"/>
    </edge>
    <edge id="D2TL" from="D" to="TL" priority="-1">
        <lane id="D2TL_0" index="0" speed="40.00" length="292.78" shape="327.18,616.59 619.97,616.59"/>
        <lane id="D2TL_1" index="1" speed="40.00" length="292.78" shape="327.18,619.79 619.97,619.79"/>
    </edge>
    <edge id="DA2D" from="DA" to="D" priority="-1">
        <lane id="DA2D_0" index="0" speed="40.00" length="306.38" shape="321.58,304.60 321.58,610.99"/>
        <lane id="DA2D_1" index="1" speed="40.00" length="306.38" shape="318.38,304.60 318.38,610.99"/>
    </edge>
    <edge id="DB2D" from="DB" to="D" priority="-1">
        <lane id="DB2D_0" index="0" speed="40.00" length="306.38" shape="-0.00,616.59 306.38,616.59"/>
        <lane id="DB2D_1" index="1" speed="40.00" length="306.38" shape="-0.00,619.79 306.38,619.79"/>
    </edge>
    <edge id="DC2D" from="DC" to="D" priority="-1">
        <lane id="DC2D_0" index="0" speed="40.00" length="306.38" shape="311.98,938.17 311.98,631.79"/>
        <lane id="DC2D_1" index="1" speed="40.00" length="306.38" shape="315.18,938.17 315.18,631.79"/>
    </edge>
    <edge id="TL2A" from="TL" to="A" priority="-1">
        <lane id="TL2A_0" index="0" speed="40.00" length="296.71" shape="641.57,631.79 641.57,928.50"/>
        <lane id="TL2A_1" index="1" speed="40.00" length="296.71" shape="638.37,631.79 638.37,928.50"/>
        <lane id="TL2A_2" index="2" speed="40.00" length="296.71" shape="635.17,631.79 635.17,928.50"/>
    </edge>
    <edge id="TL2B" from="TL" to="B" priority="-1">
        <lane id="TL2B_0" index="0" speed="40.00" length="294.21" shape="647.17,616.59 941.37,616.59"/>
        <lane id="TL2B_1" index="1" speed="40.00" length="294.21" shape="647.17,619.79 941.37,619.79"/>
    </edge>
    <edge id="TL2C" from="TL" to="C" priority="-1">
        <lane id="TL2C_0" index="0" speed="40.00" length="289.89" shape="628.77,610.99 628.77,321.09"/>
        <lane id="TL2C_1" index="1" speed="40.00" length="289.89" shape="631.97,610.99 631.97,321.09"/>
    </edge>
    <edge id="TL2D" from="TL" to="D" priority="-1">
        <lane id="TL2D_0" index="0" speed="40.00" length="292.78" shape="619.97,626.19 327.18,626.19"/>
        <lane id="TL2D_1" index="1" speed="40.00" length="292.78" shape="619.97,622.99 327.18,622.99"/>
    </edge>

    <tlLogic id="A" type="static" programID="0" offset="0">
        <phase duration="23" state="GGGrrrrrGGGrrrrr"/>
        <phase duration="8"  state="yyyrrrrryyyrrrrr"/>
        <phase duration="6"  state="rrrGrrrrrrrGrrrr"/>
        <phase duration="8"  state="rrryrrrrrrryrrrr"/>
        <phase duration="23" state="rrrrGGGrrrrrGGGr"/>
        <phase duration="8"  state="rrrryyyrrrrryyyr"/>
        <phase duration="6"  state="rrrrrrrGrrrrrrrG"/>
        <phase duration="8"  state="rrrrrrryrrrrrrry"/>
    </tlLogic>
    <tlLogic id="AA" type="static" programID="0" offset="0">
        <phase duration="77" state="G"/>
        <phase duration="8"  state="y"/>
        <phase duration="5"  state="r"/>
    </tlLogic>
    <tlLogic id="AB" type="static" programID="0" offset="0">
        <phase duration="77" state="G"/>
        <phase duration="8"  state="y"/>
        <phase duration="5"  state="r"/>
    </tlLogic>
    <tlLogic id="AC" type="static" programID="0" offset="0">
        <phase duration="77" state="G"/>
        <phase duration="8"  state="y"/>
        <phase duration="5"  state="r"/>
    </tlLogic>
    <tlLogic id="B" type="static" programID="0" offset="0">
        <phase duration="37" state="GGGgrrrrGGGgrrrr"/>
        <phase duration="8"  state="yyyyrrrryyyyrrrr"/>
        <phase duration="37" state="rrrrGGGgrrrrGGGg"/>
        <phase duration="8"  state="rrrryyyyrrrryyyy"/>
    </tlLogic>
    <tlLogic id="BA" type="static" programID="0" offset="0">