<nodes><node id="TL" x="0" y="0" z="0" type="traffic_light_right_on_red" /><node id="A" x="2.7840528836325322e-14" y="454.67034014556657" z="-12.193887478065864" type="traffic_light" /><node id="AA" x="-454.67034014556657" y="454.6703401455666" z="-12.193887478065864" type="traffic_light" /><node id="AB" x="5.5681057672650645e-14" y="909.3406802911331" z="-12.193887478065864" type="traffic_light" /><node id="AC" x="454.67034014556657" y="454.67034014556657" z="-12.193887478065864" type="traffic_light" /><node id="B" x="637.8984894844739" y="0.0" z="-28.766097450324065" type="traffic_light" /><node id="BA" x="637.8984894844739" y="637.8984894844739" z="-28.766097450324065" type="traffic_light" /><node id="BB" x="1275.7969789689478" y="0.0" z="-28.766097450324065" type="traffic_light" /><node id="BC" x="637.8984894844739" y="-637.8984894844739" z="-28.766097450324065" type="traffic_light" /><node id="C" x="2.920625407644598e-14" y="-476.9743259326773" z="3.6345091907694917" type="traffic_light" /><node id="CA" x="476.97432593267735" y="-476.9743259326773" z="3.6345091907694917" type="traffic_light" /><node id="CB" x="5.841250815289196e-14" y="-953.9486518653546" z="3.6345091907694917" type="traffic_light" /><node id="CC" x="-476.97432593267723" y="-476.97432593267735" z="3.6345091907694917" type="traffic_light" /><node id="D" x="-200.0" y="-2.4492935982947064e-14" z="11.941054177612093" type="traffic_light" /><node id="DA" x="-200.0" y="-200.00000000000003" z="11.941054177612093" type="traffic_light" /><node id="DB" x="-400.0" y="-4.898587196589413e-14" z="11.941054177612093" type="traffic_light" /><node id="DC" x="-200.00000000000003" y="199.99999999999997" z="11.941054177612093" type="traffic_light" /></nodes>