<nodes><node id="TL" x="0" y="0" z="0" type="traffic_light_right_on_red" /><node id="A" x="1.8064686253244924e-14" y="295.0187150421209" z="-0.7193729218842789" type="traffic_light" /><node id="AA" x="-295.0187150421209" y="295.01871504212096" z="-0.7193729218842789" type="traffic_light" /><node id="AB" x="3.612937250648985e-14" y="590.0374300842418" z="-0.7193729218842789" type="traffic_light" /><node id="AC" x="295.0187150421209" y="295.0187150421209" z="-0.7193729218842789" type="traffic_light" /><node id="B" x="1134.8180171497056" y="0.0" z="12.79775238740059" type="traffic_light" /><node id="BA" x="1134.8180171497056" y="1134.8180171497056" z="12.79775238740059" type="traffic_light" /><node id="BB" x="2269.636034299411" y="0.0" z="12.79775238740059" type="traffic_light" /><node id="BC" x="1134.8180171497056" y="-1134.8180171497056" z="12.79775238740059" type="traffic_light" /><node id="C" x="3.328921465189006e-14" y="-543.6541323599148" z="-1.9884649208862386" type="traffic_light" /><node id="CA" x="543.6541323599148" y="-543.6541323599148" z="-1.9884649208862386" type="traffic_light" /><node id="CB" x="6.657842930378011e-14" y="-1087.3082647198296" z="-1.9884649208862386" type="traffic_light" /><node id="CC" x="-543.6541323599148" y="-543.6541323599149" z="-1.9884649208862386" type="traffic_light" /><node id="D" x="-1027.266907226457" y="-1.2580391298048818e-13" z="-0.31311094847446425" type="traffic_light" /><node id="DA" x="-1027.266907226457" y="-1027.2669072264573" z="-0.31311094847446425" type="traffic_light" /><node id="DB" x="-2054.533814452914" y="-2.5160782596097635e-13" z="-0.31311094847446425" type="traffic_light" /><node id="DC" x="-1027.2669072264573" y="1027.2669072264569" z="-0.31311094847446425" type="traffic_light" /></nodes>