<?xml version="1.0" encoding="UTF-8"?>

<!-- generated on 2022-10-11 16:45:05 by Eclipse SUMO netconvert Version 1.14.1
<configuration xmlns:xsi="http://www.w3.org/2001/XMLSchema-instance" xsi:noNamespaceSchemaLocation="http://sumo.dlr.de/xsd/netconvertConfiguration.xsd">

    <input>
        <node-files value="../data/salt-lake-city/nodes.nod.xml"/>
        <edge-files value="../data/salt-lake-city/edges.edg.xml"/>
        <connection-files value="../data/salt-lake-city/connections.con.xml"/>
    </input>

    <output>
        <output-file value="../data/salt-lake-city/sumo/net/1.net.xml"/>
    </output>

    <tls_building>
        <tls.minor-left.max-speed value="1"/>
    </tls_building>

    <report>
        <verbose value="true"/>
    </report>

</configuration>
-->

<net version="1.9" junctionCornerDetail="5" limitTurnSpeed="5.50" xmlns:xsi="http://www.w3.org/2001/XMLSchema-instance" xsi:noNamespaceSchemaLocation="http://sumo.dlr.de/xsd/net_file.xsd">

    <location netOffset="394.24,3121.66" convBoundary="0.00,0.00,6637.56,6243.32" origBoundary="-394.24,-3121.66,6243.32,3121.66" projParameter="!"/>

    <edge id=":A_0" function="internal">
        <lane id=":A_0_0" index="0" speed="6.51" length="9.03" shape="386.24,3515.78,4.18 385.89,3513.33,4.18 384.84,3511.58,4.18 383.09,3510.53,4.18 380.64,3510.18,4.18"/>
    </edge>
    <edge id=":A_1" function="internal">
        <lane id=":A_1_0" index="0" speed="30.00" length="27.20" shape="386.24,3515.78,4.18 386.24,3488.58,4.03"/>
        <lane id=":A_1_1" index="1" speed="30.00" length="27.20" shape="389.44,3515.78,4.18 389.44,3488.58,4.03"/>
        <lane id=":A_1_2" index="2" speed="30.00" length="27.20" shape="392.64,3515.78,4.18 392.64,3488.58,4.03"/>
    </edge>
    <edge id=":A_4" function="internal">
        <lane id=":A_4_0" index="0" speed="10.36" length="5.01" shape="392.64,3515.78,4.18 393.35,3510.82,4.18"/>
    </edge>
    <edge id=":A_20" function="internal">
        <lane id=":A_20_0" index="0" speed="10.36" length="19.50" shape="393.35,3510.82,4.18 393.59,3509.13,4.18 396.44,3504.38,4.18 401.19,3501.53,4.18 407.84,3500.58,4.18"/>
    </edge>
    <edge id=":A_5" function="internal">
        <lane id=":A_5_0" index="0" speed="6.51" length="9.03" shape="407.84,3510.18,4.18 405.39,3510.53,4.18 403.64,3511.58,4.18 402.59,3513.33,4.18 402.24,3515.78,4.18"/>
    </edge>
    <edge id=":A_6" function="internal">
        <lane id=":A_6_0" index="0" speed="30.00" length="27.20" shape="407.84,3510.18,4.18 380.64,3510.18,4.18"/>
        <lane id=":A_6_1" index="1" speed="30.00" length="27.20" shape="407.84,3506.98,4.18 380.64,3506.98,4.18"/>
        <lane id=":A_6_2" index="2" speed="30.00" length="27.20" shape="407.84,3503.78,4.18 380.64,3503.78,4.18"/>
    </edge>
    <edge id=":A_9" function="internal">
        <lane id=":A_9_0" index="0" speed="10.36" length="5.01" shape="407.84,3503.78,4.18 402.88,3503.07,4.14"/>
    </edge>
    <edge id=":A_21" function="internal">
        <lane id=":A_21_0" index="0" speed="10.36" length="19.50" shape="402.88,3503.07,4.14 401.19,3502.83,4.13 396.44,3499.98,4.10 393.59,3495.23,4.07 392.64,3488.58,4.03"/>
    </edge>
    <edge id=":A_10" function="internal">
        <lane id=":A_10_0" index="0" speed="6.51" length="9.03" shape="402.24,3488.58,4.03 402.59,3491.03,4.07 403.64,3492.78,4.10 405.39,3493.83,4.13 407.84,3494.18,4.18"/>
    </edge>
    <edge id=":A_11" function="internal">
        <lane id=":A_11_0" index="0" speed="30.00" length="27.20" shape="402.24,3488.58,4.03 402.24,3515.78,4.18"/>
        <lane id=":A_11_1" index="1" speed="30.00" length="27.20" shape="399.04,3488.58,4.03 399.04,3515.78,4.18"/>
        <lane id=":A_11_2" index="2" speed="30.00" length="27.20" shape="395.84,3488.58,4.03 395.84,3515.78,4.18"/>
    </edge>
    <edge id=":A_14" function="internal">
        <lane id=":A_14_0" index="0" speed="10.36" length="5.01" shape="395.84,3488.58,4.03 395.13,3493.55,4.06"/>
    </edge>
    <edge id=":A_22" function="internal">
        <lane id=":A_22_0" index="0" speed="10.36" length="19.50" shape="395.13,3493.55,4.06 394.89,3495.23,4.07 392.04,3499.98,4.10 387.29,3502.83,4.13 380.64,3503.78,4.18"/>
    </edge>
    <edge id=":A_15" function="internal">
        <lane id=":A_15_0" index="0" speed="6.51" length="9.03" shape="380.64,3494.18,4.18 383.09,3493.83,4.13 384.84,3492.78,4.10 385.89,3491.03,4.07 386.24,3488.58,4.03"/>
    </edge>
    <edge id=":A_16" function="internal">
        <lane id=":A_16_0" index="0" speed="30.00" length="27.20" shape="380.64,3494.18,4.18 407.84,3494.18,4.18"/>
        <lane id=":A_16_1" index="1" speed="30.00" length="27.20" shape="380.64,3497.38,4.18 407.84,3497.38,4.18"/>
        <lane id=":A_16_2" index="2" speed="30.00" length="27.20" shape="380.64,3500.58,4.18 407.84,3500.58,4.18"/>
    </edge>
    <edge id=":A_19" function="internal">
        <lane id=":A_19_0" index="0" speed="10.36" length="5.01" shape="380.64,3500.58,4.18 385.61,3501.29,4.18"/>
    </edge>
    <edge id=":A_23" function="internal">
        <lane id=":A_23_0" index="0" speed="10.36" length="19.50" shape="385.61,3501.29,4.18 387.29,3501.53,4.18 392.04,3504.38,4.18 394.89,3509.13,4.18 395.84,3515.78,4.18"/>
    </edge>
    <edge id=":AA_0" function="internal">
        <lane id=":AA_0_0" index="0" speed="3.65" length="4.67" shape="13.72,3503.78,4.18 12.52,3502.98,4.18 12.12,3502.18,4.18 12.52,3501.38,4.18 13.72,3500.58,4.18"/>
    </edge>
    <edge id=":AB_0" function="internal">
        <lane id=":AB_0_0" index="0" speed="3.65" length="4.67" shape="395.84,3882.70,4.18 395.04,3883.90,4.18 394.24,3884.30,4.18 393.44,3883.90,4.18 392.64,3882.70,4.18"/>
    </edge>
    <edge id=":AC_0" function="internal">
        <lane id=":AC_0_0" index="0" speed="3.65" length="4.67" shape="774.76,3500.58,4.18 775.96,3501.38,4.18 776.36,3502.18,4.18 775.96,3502.98,4.18 774.76,3503.78,4.18"/>
    </edge>
    <edge id=":B_0" function="internal">
        <lane id=":B_0_0" index="0" speed="6.51" length="9.03" shape="3514.30,3128.86,-9.51 3513.95,3126.41,-9.51 3512.90,3124.66,-9.50 3511.15,3123.61,-9.50 3508.70,3123.26,-9.49"/>
    </edge>
    <edge id=":B_1" function="internal">
        <lane id=":B_1_0" index="0" speed="20.00" length="14.40" shape="3514.30,3128.86,-9.51 3514.30,3114.46,-9.51"/>
    </edge>
    <edge id=":B_2" function="internal">
        <lane id=":B_2_0" index="0" speed="6.51" length="9.03" shape="3523.10,3123.26,-9.51 3520.65,3123.61,-9.51 3518.90,3124.66,-9.51 3517.85,3126.41,-9.51 3517.50,3128.86,-9.51"/>
    </edge>
    <edge id=":B_3" function="internal">
        <lane id=":B_3_0" index="0" speed="20.00" length="14.40" shape="3523.10,3123.26,-9.51 3508.70,3123.26,-9.49"/>
    </edge>
    <edge id=":B_4" function="internal">
        <lane id=":B_4_0" index="0" speed="6.51" length="9.03" shape="3517.50,3114.46,-9.51 3517.85,3116.91,-9.51 3518.90,3118.66,-9.51 3520.65,3119.71,-9.51 3523.10,3120.06,-9.51"/>
    </edge>
    <edge id=":B_5" function="internal">
        <lane id=":B_5_0" index="0" speed="20.00" length="14.40" shape="3517.50,3114.46,-9.51 3517.50,3128.86,-9.51"/>
    </edge>
    <edge id=":B_6" function="internal">
        <lane id=":B_6_0" index="0" speed="6.51" length="9.03" shape="3508.70,3120.06,-9.49 3511.15,3119.71,-9.50 3512.90,3118.66,-9.50 3513.95,3116.91,-9.51 3514.30,3114.46,-9.51"/>
    </edge>
    <edge id=":B_7" function="internal">
        <lane id=":B_7_0" index="0" speed="20.00" length="14.40" shape="3508.70,3120.06,-9.49 3523.10,3120.06,-9.51"/>
    </edge>
    <edge id=":BA_0" function="internal">
        <lane id=":BA_0_0" index="0" speed="3.65" length="4.67" shape="3517.50,6243.32,-9.51 3516.70,6244.52,-9.51 3515.90,6244.92,-9.51 3515.10,6244.52,-9.51 3514.30,6243.32,-9.51"/>
    </edge>
    <edge id=":BB_0" function="internal">
        <lane id=":BB_0_0" index="0" speed="3.65" length="4.67" shape="6637.56,3120.06,-9.51 6638.76,3120.86,-9.51 6639.16,3121.66,-9.51 6638.76,3122.46,-9.51 6637.56,3123.26,-9.51"/>
    </edge>
    <edge id=":BC_0" function="internal">
        <lane id=":BC_0_0" index="0" speed="3.65" length="4.67" shape="3514.30,0.00,-9.51 3515.10,-1.20,-9.51 3515.90,-1.60,-9.51 3516.70,-1.20,-9.51 3517.50,0.00,-9.51"/>
    </edge>
    <edge id=":C_0" function="internal">
        <lane id=":C_0_0" index="0" speed="8.10" length="14.57" shape="389.44,2744.22,-9.25 388.69,2741.77,-9.25 386.44,2740.02,-9.25 382.69,2738.97,-9.25 377.44,2738.62,-9.25"/>
    </edge>
    <edge id=":C_1" function="internal">
        <lane id=":C_1_0" index="0" speed="30.00" length="34.33" shape="389.44,2744.22,-9.25 388.44,2737.15,-9.25 386.24,2730.08,-9.25 384.04,2721.68,-9.25 383.04,2710.62,-9.25"/>
        <lane id=":C_1_1" index="1" speed="30.00" length="34.33" shape="392.64,2744.22,-9.25 391.64,2737.15,-9.25 389.44,2730.08,-9.25 387.24,2721.68,-9.25 386.24,2710.62,-9.25"/>
    </edge>
    <edge id=":C_3" function="internal">
        <lane id=":C_3_0" index="0" speed="11.36" length="15.40" shape="392.64,2744.22,-9.25 393.79,2736.17,-9.25 397.24,2730.42,-9.25 397.73,2730.13,-9.25"/>
    </edge>
    <edge id=":C_16" function="internal">
        <lane id=":C_16_0" index="0" speed="11.36" length="14.27" shape="397.73,2730.13,-9.25 402.99,2726.97,-9.25 411.04,2725.82,-9.25"/>
    </edge>
    <edge id=":C_4" function="internal">
        <lane id=":C_4_0" index="0" speed="8.10" length="14.57" shape="411.04,2732.22,-9.25 408.59,2732.97,-9.25 406.84,2735.22,-9.25 405.79,2738.97,-9.25 405.44,2744.22,-9.25"/>
    </edge>
    <edge id=":C_5" function="internal">
        <lane id=":C_5_0" index="0" speed="30.00" length="34.33" shape="411.04,2732.22,-9.25 403.98,2733.22,-9.25 396.91,2735.42,-9.25 388.50,2737.62,-9.25 377.44,2738.62,-9.25"/>
        <lane id=":C_5_1" index="1" speed="30.00" length="34.33" shape="411.04,2729.02,-9.25 403.98,2730.02,-9.25 396.91,2732.22,-9.25 388.50,2734.42,-9.25 377.44,2735.42,-9.25"/>
    </edge>
    <edge id=":C_7" function="internal">
        <lane id=":C_7_0" index="0" speed="11.36" length="15.40" shape="411.04,2729.02,-9.25 402.99,2727.87,-9.25 397.24,2724.42,-9.25 396.95,2723.93,-9.25"/>
    </edge>
    <edge id=":C_17" function="internal">
        <lane id=":C_17_0" index="0" speed="11.36" length="14.27" shape="396.95,2723.93,-9.25 393.79,2718.67,-9.25 392.64,2710.62,-9.25"/>
    </edge>
    <edge id=":C_8" function="internal">
        <lane id=":C_8_0" index="0" speed="8.10" length="14.57" shape="399.04,2710.62,-9.25 399.79,2713.07,-9.25 402.04,2714.82,-9.25 405.79,2715.87,-9.25 411.04,2716.22,-9.25"/>
    </edge>
    <edge id=":C_9" function="internal">
        <lane id=":C_9_0" index="0" speed="30.00" length="34.33" shape="399.04,2710.62,-9.25 400.04,2717.68,-9.25 402.24,2724.75,-9.25 404.44,2733.16,-9.25 405.44,2744.22,-9.25"/>
        <lane id=":C_9_1" index="1" speed="30.00" length="34.33" shape="395.84,2710.62,-9.25 396.84,2717.68,-9.25 399.04,2724.75,-9.25 401.24,2733.16,-9.25 402.24,2744.22,-9.25"/>
    </edge>
    <edge id=":C_11" function="internal">
        <lane id=":C_11_0" index="0" speed="11.36" length="15.40" shape="395.84,2710.62,-9.25 394.69,2718.67,-9.25 391.24,2724.42,-9.25 390.76,2724.71,-9.25"/>
    </edge>
    <edge id=":C_18" function="internal">
        <lane id=":C_18_0" index="0" speed="11.36" length="14.27" shape="390.76,2724.71,-9.25 385.49,2727.87,-9.25 377.44,2729.02,-9.25"/>
    </edge>
    <edge id=":C_12" function="internal">
        <lane id=":C_12_0" index="0" speed="8.10" length="14.57" shape="377.44,2722.62,-9.25 379.89,2721.87,-9.25 381.64,2719.62,-9.25 382.69,2715.87,-9.25 383.04,2710.62,-9.25"/>
    </edge>
    <edge id=":C_13" function="internal">
        <lane id=":C_13_0" index="0" speed="30.00" length="34.33" shape="377.44,2722.62,-9.25 384.51,2721.62,-9.25 391.58,2719.42,-9.25 399.98,2717.22,-9.25 411.04,2716.22,-9.25"/>
        <lane id=":C_13_1" index="1" speed="30.00" length="34.33" shape="377.44,2725.82,-9.25 384.51,2724.82,-9.25 391.58,2722.62,-9.25 399.98,2720.42,-9.25 411.04,2719.42,-9.25"/>
    </edge>
    <edge id=":C_15" function="internal">
        <lane id=":C_15_0" index="0" speed="11.36" length="15.40" shape="377.44,2725.82,-9.25 385.49,2726.97,-9.25 391.24,2730.42,-9.25 391.53,2730.90,-9.25"/>
    </edge>
    <edge id=":C_19" function="internal">
        <lane id=":C_19_0" index="0" speed="11.36" length="14.27" shape="391.53,2730.90,-9.25 394.69,2736.17,-9.25 395.84,2744.22,-9.25"/>
    </edge>
    <edge id=":CA_0" function="internal">
        <lane id=":CA_0_0" index="0" speed="3.65" length="4.67" shape="788.49,2725.82,-9.25 789.69,2726.62,-9.25 790.09,2727.42,-9.25 789.69,2728.22,-9.25 788.49,2729.02,-9.25"/>
    </edge>
    <edge id=":CB_0" function="internal">
        <lane id=":CB_0_0" index="0" speed="3.65" length="4.67" shape="392.64,2333.17,-9.25 393.44,2331.97,-9.25 394.24,2331.57,-9.25 395.04,2331.97,-9.25 395.84,2333.17,-9.25"/>
    </edge>
    <edge id=":CC_0" function="internal">
        <lane id=":CC_0_0" index="0" speed="3.65" length="4.67" shape="0.00,2729.02,-9.25 -1.20,2728.22,-9.25 -1.60,2727.42,-9.25 -1.20,2726.62,-9.25 0.00,2725.82,-9.25"/>
    </edge>
    <edge id=":D_0" function="internal">
        <lane id=":D_0_0" index="0" speed="6.51" length="9.03" shape="275.22,3128.86,-1.57 274.87,3126.41,-1.57 273.82,3124.66,-1.57 272.07,3123.61,-1.57 269.62,3123.26,-1.57"/>
    </edge>
    <edge id=":D_1" function="internal">
        <lane id=":D_1_0" index="0" speed="25.00" length="14.40" shape="275.22,3128.86,-1.57 275.22,3114.46,-1.57"/>
    </edge>
    <edge id=":D_2" function="internal">
        <lane id=":D_2_0" index="0" speed="6.51" length="9.03" shape="284.02,3123.26,-1.48 281.57,3123.61,-1.50 279.82,3124.66,-1.53 278.77,3126.41,-1.55 278.42,3128.86,-1.57"/>
    </edge>
    <edge id=":D_3" function="internal">
        <lane id=":D_3_0" index="0" speed="25.00" length="14.40" shape="284.02,3123.26,-1.48 269.62,3123.26,-1.57"/>
    </edge>
    <edge id=":D_4" function="internal">
        <lane id=":D_4_0" index="0" speed="6.51" length="9.03" shape="278.42,3114.46,-1.57 278.77,3116.91,-1.55 279.82,3118.66,-1.53 281.57,3119.71,-1.50 284.02,3120.06,-1.48"/>
    </edge>
    <edge id=":D_5" function="internal">
        <lane id=":D_5_0" index="0" speed="25.00" length="14.40" shape="278.42,3114.46,-1.57 278.42,3128.86,-1.57"/>
    </edge>
    <edge id=":D_6" function="internal">
        <lane id=":D_6_0" index="0" speed="6.51" length="9.03" shape="269.62,3120.06,-1.57 272.07,3119.71,-1.57 273.82,3118.66,-1.57 274.87,3116.91,-1.57 275.22,3114.46,-1.57"/>
    </edge>
    <edge id=":D_7" function="internal">
        <lane id=":D_7_0" index="0" speed="25.00" length="14.40" shape="269.62,3120.06,-1.57 284.02,3120.06,-1.48"/>
    </edge>
    <edge id=":DA_0" function="internal">
        <lane id=":DA_0_0" index="0" speed="3.65" length="4.67" shape="275.22,3004.23,-1.57 276.02,3003.03,-1.57 276.82,3002.63,-1.57 277.62,3003.03,-1.57 278.42,3004.23,-1.57"/>
    </edge>
    <edge id=":DB_0" function="internal">
        <lane id=":DB_0_0" index="0" speed="3.65" length="4.67" shape="159.39,3123.26,-1.57 158.19,3122.46,-1.57 157.79,3121.66,-1.57 158.19,3120.86,-1.57 159.39,3120.06,-1.57"/>
    </edge>
    <edge id=":DC_0" function="internal">
        <lane id=":DC_0_0" index="0" speed="3.65" length="4.67" shape="278.42,3239.09,-1.57 277.62,3240.29,-1.57 276.82,3240.69,-1.57 276.02,3240.29,-1.57 275.22,3239.09,-1.57"/>
    </edge>
    <edge id=":TL_0" function="internal">
        <lane id=":TL_0_0" index="0" speed="6.51" length="9.04" shape="386.24,3128.86,0.08 385.89,3126.41,0.01 384.84,3124.66,-0.05 383.09,3123.61,-0.11 380.64,3123.26,-0.18"/>
    </edge>
    <edge id=":TL_1" function="internal">
        <lane id=":TL_1_0" index="0" speed="30.00" length="14.87" shape="386.24,3128.86,0.08 386.74,3124.54,0.01 387.84,3121.66,-0.04 388.94,3118.78,-0.10 389.44,3114.46,-0.17"/>
        <lane id=":TL_1_1" index="1" speed="30.00" length="14.87" shape="389.44,3128.86,0.08 389.94,3124.54,0.01 391.04,3121.66,-0.04 392.14,3118.78,-0.10 392.64,3114.46,-0.17"/>
    </edge>
    <edge id=":TL_3" function="internal">
        <lane id=":TL_3_0" index="0" speed="9.94" length="3.79" shape="392.64,3128.86,0.08 393.73,3125.22,0.06"/>
    </edge>
    <edge id=":TL_13" function="internal">
        <lane id=":TL_13_0" index="0" speed="9.94" length="18.69" shape="393.73,3125.22,0.06 393.79,3125.01,0.06 397.24,3122.26,0.03 402.99,3120.61,-0.00 411.04,3120.06,-0.05"/>
    </edge>
    <edge id=":TL_4" function="internal">
        <lane id=":TL_4_0" index="0" speed="7.33" length="11.73" shape="411.04,3123.26,-0.05 407.19,3123.61,-0.01 404.44,3124.66,0.02 402.79,3126.41,0.05 402.24,3128.86,0.08"/>
    </edge>
    <edge id=":TL_5" function="internal">
        <lane id=":TL_5_0" index="0" speed="22.50" length="30.40" shape="411.04,3123.26,-0.05 380.64,3123.26,-0.18"/>
    </edge>
    <edge id=":TL_6" function="internal">
        <lane id=":TL_6_0" index="0" speed="6.51" length="9.03" shape="405.44,3114.46,-0.18 405.79,3116.91,-0.14 406.84,3118.66,-0.11 408.59,3119.71,-0.09 411.04,3120.06,-0.05"/>
    </edge>
    <edge id=":TL_7" function="internal">
        <lane id=":TL_7_0" index="0" speed="30.00" length="14.87" shape="405.44,3114.46,-0.18 404.94,3118.78,-0.10 403.84,3121.66,-0.05 402.74,3124.54,0.00 402.24,3128.86,0.08"/>
        <lane id=":TL_7_1" index="1" speed="30.00" length="14.87" shape="402.24,3114.46,-0.18 401.74,3118.78,-0.10 400.64,3121.66,-0.05 399.54,3124.54,0.00 399.04,3128.86,0.08"/>
        <lane id=":TL_7_2" index="2" speed="30.00" length="14.87" shape="399.04,3114.46,-0.18 398.54,3118.78,-0.10 397.44,3121.66,-0.05 396.34,3124.54,0.00 395.84,3128.86,0.08"/>
    </edge>
    <edge id=":TL_10" function="internal">
        <lane id=":TL_10_0" index="0" speed="9.32" length="3.97" shape="395.84,3114.46,-0.18 394.89,3118.31,-0.18"/>
    </edge>
    <edge id=":TL_14" function="internal">
        <lane id=":TL_14_0" index="0" speed="9.32" length="15.66" shape="394.89,3118.31,-0.18 392.04,3121.06,-0.18 387.29,3122.71,-0.18 380.64,3123.26,-0.18"/>
    </edge>
    <edge id=":TL_11" function="internal">
        <lane id=":TL_11_0" index="0" speed="7.33" length="11.73" shape="380.64,3120.06,-0.18 384.49,3119.71,-0.18 387.24,3118.66,-0.17 388.89,3116.91,-0.17 389.44,3114.46,-0.17"/>
    </edge>
    <edge id=":TL_12" function="internal">
        <lane id=":TL_12_0" index="0" speed="22.50" length="30.40" shape="380.64,3120.06,-0.18 411.04,3120.06,-0.05"/>
    </edge>

    <edge id="A2AA" from="A" to="AA" priority="-1">
        <lane id="A2AA_0" index="0" speed="30.00" length="366.92" shape="380.64,3510.18,4.18 13.72,3510.18,4.18"/>
        <lane id="A2AA_1" index="1" speed="30.00" length="366.92" shape="380.64,3506.98,4.18 13.72,3506.98,4.18"/>
        <lane id="A2AA_2" index="2" speed="30.00" length="366.92" shape="380.64,3503.78,4.18 13.72,3503.78,4.18"/>
    </edge>
    <edge id="A2AB" from="A" to="AB" priority="-1">
        <lane id="A2AB_0" index="0" speed="30.00" length="366.92" shape="402.24,3515.78,4.18 402.24,3882.70,4.18"/>
        <lane id="A2AB_1" index="1" speed="30.00" length="366.92" shape="399.04,3515.78,4.18 399.04,3882.70,4.18"/>
        <lane id="A2AB_2" index="2" speed="30.00" length="366.92" shape="395.84,3515.78,4.18 395.84,3882.70,4.18"/>
    </edge>
    <edge id="A2AC" from="A" to="AC" priority="-1">
        <lane id="A2AC_0" index="0" speed="30.00" length="366.92" shape="407.84,3494.18,4.18 774.76,3494.18,4.18"/>
        <lane id="A2AC_1" index="1" speed="30.00" length="366.92" shape="407.84,3497.38,4.18 774.76,3497.38,4.18"/>
        <lane id="A2AC_2" index="2" speed="30.00" length="366.92" shape="407.84,3500.58,4.18 774.76,3500.58,4.18"/>
    </edge>
    <edge id="A2TL" from="A" to="TL" priority="-1">
        <lane id="A2TL_0" index="0" speed="30.00" length="359.74" shape="386.24,3488.58,4.03 386.24,3128.86,0.08"/>
        <lane id="A2TL_1" index="1" speed="30.00" length="359.74" shape="389.44,3488.58,4.03 389.44,3128.86,0.08"/>
        <lane id="A2TL_2" index="2" speed="30.00" length="359.74" shape="392.64,3488.58,4.03 392.64,3128.86,0.08"/>
    </edge>
    <edge id="AA2A" from="AA" to="A" priority="-1">
        <lane id="AA2A_0" index="0" speed="30.00" length="366.92" shape="13.72,3494.18,4.18 380.64,3494.18,4.18"/>
        <lane id="AA2A_1" index="1" speed="30.00" length="366.92" shape="13.72,3497.38,4.18 380.64,3497.38,4.18"/>
        <lane id="AA2A_2" index="2" speed="30.00" length="366.92" shape="13.72,3500.58,4.18 380.64,3500.58,4.18"/>
    </edge>
    <edge id="AB2A" from="AB" to="A" priority="-1">
        <lane id="AB2A_0" index="0" speed="30.00" length="366.92" shape="386.24,3882.70,4.18 386.24,3515.78,4.18"/>
        <lane id="AB2A_1" index="1" speed="30.00" length="366.92" shape="389.44,3882.70,4.18 389.44,3515.78,4.18"/>
        <lane id="AB2A_2" index="2" speed="30.00" length="366.92" shape="392.64,3882.70,4.18 392.64,3515.78,4.18"/>
    </edge>
    <edge id="AC2A" from="AC" to="A" priority="-1">
        <lane id="AC2A_0" index="0" speed="30.00" length="366.92" shape="774.76,3510.18,4.18 407.84,3510.18,4.18"/>
        <lane id="AC2A_1" index="1" speed="30.00" length="366.92" shape="774.76,3506.98,4.18 407.84,3506.98,4.18"/>
        <lane id="AC2A_2" index="2" speed="30.00" length="366.92" shape="774.76,3503.78,4.18 407.84,3503.78,4.18"/>
    </edge>
    <edge id="B2BA" from="B" to="BA" priority="-1">
        <lane id="B2BA_0" index="0" speed="20.00" length="3114.46" shape="3517.50,3128.86,-9.51 3517.50,6243.32,-9.51"/>
    </edge>
    <edge id="B2BB" from="B" to="BB" priority="-1">
        <lane id="B2BB_0" index="0" speed="20.00" length="3114.46" shape="3523.10,3120.06,-9.51 6637.56,3120.06,-9.51"/>
    </edge>
    <edge id="B2BC" from="B" to="BC" priority="-1">
        <lane id="B2BC_0" index="0" speed="20.00" length="3114.46" shape="3514.30,3114.46,-9.51 3514.30,0.00,-9.51"/>
    </edge>
    <edge id="B2TL" from="B" to="TL" priority="-1">
        <lane id="B2TL_0" index="0" speed="20.00" length="3097.67" shape="3508.70,3123.26,-9.49 411.04,3123.26,-0.05"/>
    </edge>
    <edge id="BA2B" from="BA" to="B" priority="-1">
        <lane id="BA2B_0" index="0" speed="20.00" length="3114.46" shape="3514.30,6243.32,-9.51 3514.30,3128.86,-9.51"/>
    </edge>
    <edge id="BB2B" from="BB" to="B" priority="-1">
        <lane id="BB2B_0" index="0" speed="20.00" length="3114.46" shape="6637.56,3123.26,-9.51 3523.10,3123.26,-9.51"/>
    </edge>
    <edge id="BC2B" from="BC" to="B" priority="-1">
        <lane id="BC2B_0" index="0" speed="20.00" length="3114.46" shape="3517.50,0.00,-9.51 3517.50,3114.46,-9.51"/>
    </edge>
    <edge id="C2CA" from="C" to="CA" priority="-1">
        <lane id="C2CA_0" index="0" speed="30.00" length="377.44" shape="411.04,2716.22,-9.25 788.49,2716.22,-9.25"/>
        <lane id="C2CA_1" index="1" speed="30.00" length="377.44" shape="411.04,2719.42,-9.25 788.49,2719.42,-9.25"/>
        <lane id="C2CA_2" index="2" speed="30.00" length="377.44" shape="411.04,2722.62,-9.25 788.49,2722.62,-9.25"/>
        <lane id="C2CA_3" index="3" speed="30.00" length="377.44" shape="411.04,2725.82,-9.25 788.49,2725.82,-9.25"/>
    </edge>
    <edge id="C2CB" from="C" to="CB" priority="-1">
        <lane id="C2CB_0" index="0" speed="30.00" length="377.44" shape="383.04,2710.62,-9.25 383.04,2333.17,-9.25"/>
        <lane id="C2CB_1" index="1" speed="30.00" length="377.44" shape="386.24,2710.62,-9.25 386.24,2333.17,-9.25"/>
        <lane id="C2CB_2" index="2" speed="30.00" length="377.44" shape="389.44,2710.62,-9.25 389.44,2333.17,-9.25"/>
        <lane id="C2CB_3" index="3" speed="30.00" length="377.44" shape="392.64,2710.62,-9.25 392.64,2333.17,-9.25"/>
    </edge>
    <edge id="C2CC" from="C" to="CC" priority="-1">
        <lane id="C2CC_0" index="0" speed="30.00" length="377.44" shape="377.44,2738.62,-9.25 0.00,2738.62,-9.25"/>
        <lane id="C2CC_1" index="1" speed="30.00" length="377.44" shape="377.44,2735.42,-9.25 0.00,2735.42,-9.25"/>
        <lane id="C2CC_2" index="2" speed="30.00" length="377.44" shape="377.44,2732.22,-9.25 0.00,2732.22,-9.25"/>
        <lane id="C2CC_3" index="3" speed="30.00" length="377.44" shape="377.44,2729.02,-9.25 0.00,2729.02,-9.25"/>
    </edge>
    <edge id="C2TL" from="C" to="TL" priority="-1">
        <lane id="C2TL_0" index="0" speed="30.00" length="370.35" shape="405.44,2744.22,-9.25 405.44,3114.46,-0.18"/>
        <lane id="C2TL_1" index="1" speed="30.00" length="370.35" shape="402.24,2744.22,-9.25 402.24,3114.46,-0.18"/>
        <lane id="C2TL_2" index="2" speed="30.00" length="370.35" shape="399.04,2744.22,-9.25 399.04,3114.46,-0.18"/>
        <lane id="C2TL_3" index="3" speed="30.00" length="370.35" shape="395.84,2744.22,-9.25 395.84,3114.46,-0.18"/>
    </edge>
    <edge id="CA2C" from="CA" to="C" priority="-1">
        <lane id="CA2C_0" index="0" speed="30.00" length="377.44" shape="788.49,2732.22,-9.25 411.04,2732.22,-9.25"/>
        <lane id="CA2C_1" index="1" speed="30.00" length="377.44" shape="788.49,2729.02,-9.25 411.04,2729.02,-9.25"/>
    </edge>
    <edge id="CB2C" from="CB" to="C" priority="-1">
        <lane id="CB2C_0" index="0" speed="30.00" length="377.44" shape="399.04,2333.17,-9.25 399.04,2710.62,-9.25"/>
        <lane id="CB2C_1" index="1" speed="30.00" length="377.44" shape="395.84,2333.17,-9.25 395.84,2710.62,-9.25"/>
    </edge>
    <edge id="CC2C" from="CC" to="C" priority="-1">
        <lane id="CC2C_0" index="0" speed="30.00" length="377.44" shape="0.00,2722.62,-9.25 377.44,2722.62,-9.25"/>
        <lane id="CC2C_1" index="1" speed="30.00" length="377.44" shape="0.00,2725.82,-9.25 377.44,2725.82,-9.25"/>
    </edge>
    <edge id="D2DA" from="D" to="DA" priority="-1">
        <lane id="D2DA_0" index="0" speed="25.00" length="110.23" shape="275.22,3114.46,-1.57 275.22,3004.23,-1.57"/>
    </edge>
    <edge id="D2DB" from="D" to="DB" priority="-1">
        <lane id="D2DB_0" index="0" speed="25.00" length="110.23" shape="269.62,3123.26,-1.57 159.39,3123.26,-1.57"/>
    </edge>
    <edge id="D2DC" from="D" to="DC" priority="-1">
        <lane id="D2DC_0" index="0" speed="25.00" length="110.23" shape="278.42,3128.86,-1.57 278.42,3239.09,-1.57"/>
    </edge>
    <edge id="D2TL" from="D" to="TL" priority="-1">
        <lane id="D2TL_0" index="0" speed="25.00" length="96.63" shape="284.02,3120.06,-1.48 380.64,3120.06,-0.18"/>
    </edge>
    <edge id="DA2D" from="DA" to="D" priority="-1">
        <lane id="DA2D_0" index="0" speed="25.00" length="110.23" shape="278.42,3004.23,-1.57 278.42,3114.46,-1.57"/>
    </edge>
    <edge id="DB2D" from="DB" to="D" priority="-1">
        <lane id="DB2D_0" index="0" speed="25.00" length="110.23" shape="159.39,3120.06,-1.57 269.62,3120.06,-1.57"/>
    </edge>
    <edge id="DC2D" from="DC" to="D" priority="-1">
        <lane id="DC2D_0" index="0" speed="25.00" length="110.23" shape="275.22,3239.09,-1.57 275.22,3128.86,-1.57"/>
    </edge>
    <edge id="TL2A" from="TL" to="A" priority="-1">
        <lane id="TL2A_0" index="0" speed="30.00" length="359.74" shape="402.24,3128.86,0.08 402.24,3488.58,4.03"/>
        <lane id="TL2A_1" index="1" speed="30.00" length="359.74" shape="399.04,3128.86,0.08 399.04,3488.58,4.03"/>
        <lane id="TL2A_2" index="2" speed="30.00" length="359.74" shape="395.84,3128.86,0.08 395.84,3488.58,4.03"/>
    </edge>
    <edge id="TL2B" from="TL" to="B" priority="-1">
        <lane id="TL2B_0" index="0" speed="20.00" length="3097.67" shape="411.04,3120.06,-0.05 3508.70,3120.06,-9.49"/>
    </edge>
    <edge id="TL2C" from="TL" to="C" priority="-1">
        <lane id="TL2C_0" index="0" speed="30.00" length="370.35" shape="389.44,3114.46,-0.17 389.44,2744.22,-9.25"/>
        <lane id="TL2C_1" index="1" speed="30.00" length="370.35" shape="392.64,3114.46,-0.17 392.64,2744.22,-9.25"/>
    </edge>
    <edge id="TL2D" from="TL" to="D" priority="-1">
        <lane id="TL2D_0" index="0" speed="25.00" length="96.63" shape="380.64,3123.26,-0.18 284.02,3123.26,-1.48"/>
    </edge>

    <tlLogic id="A" type="static" programID="0" offset="0">
        <phase duration="39" state="GGGGgrrrrrGGGGgrrrrr"/>
        <phase duration="6"  state="yyyyyrrrrryyyyyrrrrr"/>
        <phase duration="39" state="rrrrrGGGGgrrrrrGGGGg"/>
        <phase duration="6"  state="rrrrryyyyyrrrrryyyyy"/>
    </tlLogic>
    <tlLogic id="AA" type="static" programID="0" offset="0">
        <phase duration="79" state="G"/>
        <phase duration="6"  state="y"/>
        <phase duration="5"  state="r"/>
    </tlLogic>
    <tlLogic id="AB" type="static" programID="0" offset="0">
        <phase duration="79" state="G"/>
        <phase duration="6"  state="y"/>
        <phase duration="5"  state="r"/>
    </tlLogic>
    <tlLogic id="AC" type="static" programID="0" offset="0">
        <phase duration="79" state="G"/>
        <phase duration="6"  state="y"/>
        <phase duration="5"  state="r"/>
    </tlLogic>
    <tlLogic id="B" type="static" programID="0" offset="0">
        <phase duration="40" state="GGrrGGrr"/>
        <phase duration="5"  state="yyrryyrr"/>
        <phase duration="40" state="rrGGrrGG"/>
        <phase duration="5"  state="rryyrryy"/>
    </tlLogic>
    <tlLogic id="BA" type="static" programID="0" offset="0">
        <phase duration="80" state="G"/>
        <phase duration="5"  state="y"/>
        <phase duration="5"  state="r"/>
    </tlLogic>
    <tlLogic id="BB" type="static" programID="0" offset="0">
        <phase duration="80" state="G"/>
        <phase duration="5"  state="y"/>
        <phase duration="5"  state="r"/>
    </tlLogic>
    <tlLogic id="BC" type="static" programID="0" offset="0">
        <phase duration="80" state="G"/>
        <phase duration="5"  state="y"/>
        <phase duration="5"  state="r"/>
    </tlLogic>
    <tlLogic id="C" type="static" programID="0" offset="0">
        <phase duration="39" state="GGGgrrrrGGGgrrrr"/>