<?xml version="1.0" encoding="UTF-8"?>

<!-- generated on 2022-10-11 16:45:06 by Eclipse SUMO netconvert Version 1.14.1
<configuration xmlns:xsi="http://www.w3.org/2001/XMLSchema-instance" xsi:noNamespaceSchemaLocation="http://sumo.dlr.de/xsd/netconvertConfiguration.xsd">

    <input>
        <node-files value="../data/salt-lake-city/nodes.nod.xml"/>
        <edge-files value="../data/salt-lake-city/edges.edg.xml"/>
        <connection-files value="../data/salt-lake-city/connections.con.xml"/>
    </input>

    <output>
        <output-file value="../data/salt-lake-city/sumo/net/10.net.xml"/>
    </output>

    <tls_building>
        <tls.minor-left.max-speed value="1"/>
    </tls_building>

    <report>
        <verbose value="true"/>
    </report>

</configuration>
-->

<net version="1.9" junctionCornerDetail="5" limitTurnSpeed="5.50" xmlns:xsi="http://www.w3.org/2001/XMLSchema-instance" xsi:noNamespaceSchemaLocation="http://sumo.dlr.de/xsd/net_file.xsd">

    <location netOffset="634.55,321.77" convBoundary="0.00,0.00,1278.00,1283.73" origBoundary="-634.55,-321.77,643.45,961.96" projParameter="!"/>

    <edge id=":A_0" function="internal">
        <lane id=":A_0_0" index="0" speed="6.51" length="9.03" shape="632.95,809.95,3.52 632.60,807.50,3.52 631.55,805.75,3.52 629.80,804.70,3.52 627.35,804.35,3.52"/>
    </edge>
    <edge id=":A_1" function="internal">
        <lane id=":A_1_0" index="0" speed="25.00" length="14.40" shape="632.95,809.95,3.52 632.95,795.55,3.47"/>
    </edge>
    <edge id=":A_2" function="internal">
        <lane id=":A_2_0" index="0" speed="6.51" length="9.03" shape="641.75,804.35,3.52 639.30,804.70,3.52 637.55,805.75,3.52 636.50,807.50,3.52 636.15,809.95,3.52"/>
    </edge>
    <edge id=":A_3" function="internal">
        <lane id=":A_3_0" index="0" speed="25.00" length="14.40" shape="641.75,804.35,3.52 627.35,804.35,3.52"/>
    </edge>
    <edge id=":A_4" function="internal">
        <lane id=":A_4_0" index="0" speed="6.51" length="9.03" shape="636.15,795.55,3.47 636.50,798.00,3.48 637.55,799.75,3.49 639.30,800.80,3.50 641.75,801.15,3.52"/>
    </edge>
    <edge id=":A_5" function="internal">
        <lane id=":A_5_0" index="0" speed="25.00" length="14.40" shape="636.15,795.55,3.47 636.15,809.95,3.52"/>
    </edge>
    <edge id=":A_6" function="internal">
        <lane id=":A_6_0" index="0" speed="6.51" length="9.03" shape="627.35,801.15,3.52 629.80,800.80,3.50 631.55,799.75,3.49 632.60,798.00,3.48 632.95,795.55,3.47"/>
    </edge>
    <edge id=":A_7" function="internal">
        <lane id=":A_7_0" index="0" speed="25.00" length="14.40" shape="627.35,801.15,3.52 641.75,801.15,3.52"/>
    </edge>
    <edge id=":AA_0" function="internal">
        <lane id=":AA_0_0" index="0" speed="3.65" length="4.67" shape="153.57,804.35,3.52 152.37,803.55,3.52 151.97,802.75,3.52 152.37,801.95,3.52 153.57,801.15,3.52"/>
    </edge>
    <edge id=":AB_0" function="internal">
        <lane id=":AB_0_0" index="0" speed="3.65" length="4.67" shape="636.15,1283.73,3.52 635.35,1284.93,3.52 634.55,1285.33,3.52 633.75,1284.93,3.52 632.95,1283.73,3.52"/>
    </edge>
    <edge id=":AC_0" function="internal">
        <lane id=":AC_0_0" index="0" speed="3.65" length="4.67" shape="1115.53,801.15,3.52 1116.73,801.95,3.52 1117.13,802.75,3.52 1116.73,803.55,3.52 1115.53,804.35,3.52"/>
    </edge>
    <edge id=":B_0" function="internal">
        <lane id=":B_0_0" index="0" speed="6.51" length="9.03" shape="951.47,332.17,1.67 951.12,329.72,1.65 950.07,327.97,1.64 948.32,326.92,1.63 945.87,326.57,1.61"/>
    </edge>
    <edge id=":B_1" function="internal">
        <lane id=":B_1_0" index="0" speed="30.00" length="20.80" shape="951.47,332.17,1.67 951.47,311.37,1.67"/>
        <lane id=":B_1_1" index="1" speed="30.00" length="20.80" shape="954.67,332.17,1.67 954.67,311.37,1.67"/>
    </edge>
    <edge id=":B_3" function="internal">
        <lane id=":B_3_0" index="0" speed="9.26" length="5.01" shape="954.67,332.17,1.67 955.38,327.21,1.67"/>
    </edge>
    <edge id=":B_16" function="internal">
        <lane id=":B_16_0" index="0" speed="9.26" length="14.34" shape="955.38,327.21,1.67 955.42,326.92,1.67 957.67,323.17,1.67 961.42,320.92,1.67 966.67,320.17,1.67"/>
    </edge>
    <edge id=":B_4" function="internal">
        <lane id=":B_4_0" index="0" speed="6.51" length="9.03" shape="966.67,326.57,1.67 964.22,326.92,1.67 962.47,327.97,1.67 961.42,329.72,1.67 961.07,332.17,1.67"/>
    </edge>
    <edge id=":B_5" function="internal">
        <lane id=":B_5_0" index="0" speed="30.00" length="20.80" shape="966.67,326.57,1.67 945.87,326.57,1.61"/>
        <lane id=":B_5_1" index="1" speed="30.00" length="20.80" shape="966.67,323.37,1.67 945.87,323.37,1.61"/>
    </edge>
    <edge id=":B_7" function="internal">
        <lane id=":B_7_0" index="0" speed="9.26" length="5.01" shape="966.67,323.37,1.67 961.71,322.66,1.67"/>
    </edge>
    <edge id=":B_17" function="internal">
        <lane id=":B_17_0" index="0" speed="9.26" length="14.34" shape="961.71,322.66,1.67 961.42,322.62,1.67 957.67,320.37,1.67 955.42,316.62,1.67 954.67,311.37,1.67"/>
    </edge>
    <edge id=":B_8" function="internal">
        <lane id=":B_8_0" index="0" speed="6.51" length="9.03" shape="961.07,311.37,1.67 961.42,313.82,1.67 962.47,315.57,1.67 964.22,316.62,1.67 966.67,316.97,1.67"/>
    </edge>
    <edge id=":B_9" function="internal">
        <lane id=":B_9_0" index="0" speed="30.00" length="20.80" shape="961.07,311.37,1.67 961.07,332.17,1.67"/>
        <lane id=":B_9_1" index="1" speed="30.00" length="20.80" shape="957.87,311.37,1.67 957.87,332.17,1.67"/>
    </edge>
    <edge id=":B_11" function="internal">
        <lane id=":B_11_0" index="0" speed="9.26" length="5.01" shape="957.87,311.37,1.67 957.16,316.33,1.65"/>
    </edge>
    <edge id=":B_18" function="internal">
        <lane id=":B_18_0" index="0" speed="9.26" length="14.34" shape="957.16,316.33,1.65 957.12,316.62,1.65 954.87,320.37,1.64 951.12,322.62,1.63 945.87,323.37,1.61"/>
    </edge>
    <edge id=":B_12" function="internal">
        <lane id=":B_12_0" index="0" speed="6.51" length="9.03" shape="945.87,316.97,1.61 948.32,316.62,1.63 950.07,315.57,1.64 951.12,313.82,1.65 951.47,311.37,1.67"/>
    </edge>
    <edge id=":B_13" function="internal">
        <lane id=":B_13_0" index="0" speed="30.00" length="20.80" shape="945.87,316.97,1.61 966.67,316.97,1.67"/>
        <lane id=":B_13_1" index="1" speed="30.00" length="20.80" shape="945.87,320.17,1.61 966.67,320.17,1.67"/>
    </edge>
    <edge id=":B_15" function="internal">
        <lane id=":B_15_0" index="0" speed="9.26" length="5.01" shape="945.87,320.17,1.61 950.83,320.88,1.63"/>
    </edge>
    <edge id=":B_19" function="internal">
        <lane id=":B_19_0" index="0" speed="9.26" length="14.34" shape="950.83,320.88,1.63 951.12,320.92,1.63 954.87,323.17,1.64 957.12,326.92,1.65 957.87,332.17,1.67"/>
    </edge>
    <edge id=":BA_0" function="internal">
        <lane id=":BA_0_0" index="0" speed="3.65" length="4.67" shape="957.87,643.49,1.67 957.07,644.69,1.67 956.27,645.09,1.67 955.47,644.69,1.67 954.67,643.49,1.67"/>
    </edge>
    <edge id=":BB_0" function="internal">
        <lane id=":BB_0_0" index="0" speed="3.65" length="4.67" shape="1278.00,320.17,1.67 1279.20,320.97,1.67 1279.60,321.77,1.67 1279.20,322.57,1.67 1278.00,323.37,1.67"/>
    </edge>
    <edge id=":BC_0" function="internal">
        <lane id=":BC_0_0" index="0" speed="3.65" length="4.67" shape="954.67,0.04,1.67 955.47,-1.16,1.67 956.27,-1.56,1.67 957.07,-1.16,1.67 957.87,0.04,1.67"/>
    </edge>
    <edge id=":C_0" function="internal">
        <lane id=":C_0_0" index="0" speed="6.51" length="9.03" shape="629.75,171.28,-0.23 629.40,168.83,-0.23 628.35,167.08,-0.24 626.60,166.03,-0.24 624.15,165.68,-0.25"/>
    </edge>
    <edge id=":C_1" function="internal">
        <lane id=":C_1_0" index="0" speed="25.00" length="20.80" shape="629.75,171.28,-0.23 629.75,150.48,-0.25"/>
        <lane id=":C_1_1" index="1" speed="25.00" length="20.80" shape="632.95,171.28,-0.23 632.95,150.48,-0.25"/>
    </edge>
    <edge id=":C_3" function="internal">
        <lane id=":C_3_0" index="0" speed="9.26" length="5.01" shape="632.95,171.28,-0.23 633.66,166.32,-0.23"/>
    </edge>
    <edge id=":C_16" function="internal">
        <lane id=":C_16_0" index="0" speed="9.26" length="14.34" shape="633.66,166.32,-0.23 633.70,166.03,-0.23 635.95,162.28,-0.24 639.70,160.03,-0.24 644.95,159.28,-0.25"/>
    </edge>
    <edge id=":C_4" function="internal">
        <lane id=":C_4_0" index="0" speed="6.51" length="9.03" shape="644.95,165.68,-0.25 642.50,166.03,-0.24 640.75,167.08,-0.24 639.70,168.83,-0.23 639.35,171.28,-0.23"/>
    </edge>
    <edge id=":C_5" function="internal">
        <lane id=":C_5_0" index="0" speed="25.00" length="20.80" shape="644.95,165.68,-0.25 624.15,165.68,-0.25"/>
        <lane id=":C_5_1" index="1" speed="25.00" length="20.80" shape="644.95,162.48,-0.25 624.15,162.48,-0.25"/>
    </edge>
    <edge id=":C_7" function="internal">
        <lane id=":C_7_0" index="0" speed="9.26" length="5.01" shape="644.95,162.48,-0.25 639.98,161.78,-0.25"/>
    </edge>
    <edge id=":C_17" function="internal">
        <lane id=":C_17_0" index="0" speed="9.26" length="14.34" shape="639.98,161.78,-0.25 639.70,161.73,-0.25 635.95,159.48,-0.25 633.70,155.73,-0.25 632.95,150.48,-0.25"/>
    </edge>
    <edge id=":C_8" function="internal">
        <lane id=":C_8_0" index="0" speed="6.51" length="9.03" shape="639.35,150.48,-0.25 639.70,152.93,-0.25 640.75,154.68,-0.25 642.50,155.73,-0.25 644.95,156.08,-0.25"/>
    </edge>
    <edge id=":C_9" function="internal">
        <lane id=":C_9_0" index="0" speed="25.00" length="20.80" shape="639.35,150.48,-0.25 639.35,171.28,-0.23"/>
        <lane id=":C_9_1" index="1" speed="25.00" length="20.80" shape="636.15,150.48,-0.25 636.15,171.28,-0.23"/>
    </edge>
    <edge id=":C_11" function="internal">
        <lane id=":C_11_0" index="0" speed="9.26" length="5.01" shape="636.15,150.48,-0.25 635.44,155.45,-0.25"/>
    </edge>
    <edge id=":C_18" function="internal">
        <lane id=":C_18_0" index="0" speed="9.26" length="14.34" shape="635.44,155.45,-0.25 635.40,155.73,-0.25 633.15,159.48,-0.25 629.40,161.73,-0.25 624.15,162.48,-0.25"/>
    </edge>
    <edge id=":C_12" function="internal">
        <lane id=":C_12_0" index="0" speed="6.51" length="9.03" shape="624.15,156.08,-0.25 626.60,155.73,-0.25 628.35,154.68,-0.25 629.40,152.93,-0.25 629.75,150.48,-0.25"/>
    </edge>
    <edge id=":C_13" function="internal">
        <lane id=":C_13_0" index="0" speed="25.00" length="20.80" shape="624.15,156.08,-0.25 644.95,156.08,-0.25"/>
        <lane id=":C_13_1" index="1" speed="25.00" length="20.80" shape="624.15,159.28,-0.25 644.95,159.28,-0.25"/>
    </edge>
    <edge id=":C_15" function="internal">
        <lane id=":C_15_0" index="0" speed="9.26" length="5.01" shape="624.15,159.28,-0.25 629.11,159.99,-0.24"/>
    </edge>
    <edge id=":C_19" function="internal">
        <lane id=":C_19_0" index="0" speed="9.26" length="14.34" shape="629.11,159.99,-0.24 629.40,160.03,-0.24 633.15,162.28,-0.24 635.40,166.03,-0.23 636.15,171.28,-0.23"/>
    </edge>
    <edge id=":CA_0" function="internal">
        <lane id=":CA_0_0" index="0" speed="3.65" length="4.67" shape="795.43,159.28,-0.25 796.63,160.08,-0.25 797.03,160.88,-0.25 796.63,161.68,-0.25 795.43,162.48,-0.25"/>
    </edge>
    <edge id=":CB_0" function="internal">
        <lane id=":CB_0_0" index="0" speed="3.65" length="4.67" shape="632.95,0.00,-0.25 633.75,-1.20,-0.25 634.55,-1.60,-0.25 635.35,-1.20,-0.25 636.15,0.00,-0.25"/>
    </edge>
    <edge id=":CC_0" function="internal">
        <lane id=":CC_0_0" index="0" speed="3.65" length="4.67" shape="473.66,162.48,-0.25 472.46,161.68,-0.25 472.06,160.88,-0.25 472.46,160.08,-0.25 473.66,159.28,-0.25"/>
    </edge>
    <edge id=":D_0" function="internal">
        <lane id=":D_0_0" index="0" speed="6.51" length="9.03" shape="312.47,332.17,3.77 312.12,329.72,3.77 311.07,327.97,3.77 309.32,326.92,3.77 306.87,326.57,3.77"/>
    </edge>
    <edge id=":D_1" function="internal">
        <lane id=":D_1_0" index="0" speed="30.00" length="20.80" shape="312.47,332.17,3.77 312.47,311.37,3.77"/>
        <lane id=":D_1_1" index="1" speed="30.00" length="20.80" shape="315.67,332.17,3.77 315.67,311.37,3.77"/>
    </edge>
    <edge id=":D_3" function="internal">
        <lane id=":D_3_0" index="0" speed="9.26" length="5.01" shape="315.67,332.17,3.77 316.38,327.21,3.74"/>
    </edge>
    <edge id=":D_16" function="internal">
        <lane id=":D_16_0" index="0" speed="9.26" length="14.34" shape="316.38,327.21,3.74 316.42,326.92,3.74 318.67,323.17,3.71 322.42,320.92,3.68 327.67,320.17,3.65"/>
    </edge>
    <edge id=":D_4" function="internal">
        <lane id=":D_4_0" index="0" speed="6.51" length="9.03" shape="327.67,326.57,3.65 325.22,326.92,3.68 323.47,327.97,3.71 322.42,329.72,3.74 322.07,332.17,3.77"/>
    </edge>
    <edge id=":D_5" function="internal">
        <lane id=":D_5_0" index="0" speed="30.00" length="20.80" shape="327.67,326.57,3.65 306.87,326.57,3.77"/>
        <lane id=":D_5_1" index="1" speed="30.00" length="20.80" shape="327.67,323.37,3.65 306.87,323.37,3.77"/>
    </edge>
    <edge id=":D_7" function="internal">
        <lane id=":D_7_0" index="0" speed="9.26" length="5.01" shape="327.67,323.37,3.65 322.71,322.66,3.68"/>
    </edge>
    <edge id=":D_17" function="internal">
        <lane id=":D_17_0" index="0" speed="9.26" length="14.34" shape="322.71,322.66,3.68 322.42,322.62,3.68 318.67,320.37,3.71 316.42,316.62,3.74 315.67,311.37,3.77"/>
    </edge>
    <edge id=":D_8" function="internal">
        <lane id=":D_8_0" index="0" speed="6.51" length="9.03" shape="322.07,311.37,3.77 322.42,313.82,3.74 323.47,315.57,3.71 325.22,316.62,3.68 327.67,316.97,3.65"/>
    </edge>
    <edge id=":D_9" function="internal">
        <lane id=":D_9_0" index="0" speed="30.00" length="20.80" shape="322.07,311.37,3.77 322.07,332.17,3.77"/>
        <lane id=":D_9_1" index="1" speed="30.00" length="20.80" shape="318.87,311.37,3.77 318.87,332.17,3.77"/>
    </edge>
    <edge id=":D_11" function="internal">
        <lane id=":D_11_0" index="0" speed="9.26" length="5.01" shape="318.87,311.37,3.77 318.16,316.33,3.77"/>
    </edge>
    <edge id=":D_18" function="internal">
        <lane id=":D_18_0" index="0" speed="9.26" length="14.34" shape="318.16,316.33,3.77 318.12,316.62,3.77 315.87,320.37,3.77 312.12,322.62,3.77 306.87,323.37,3.77"/>
    </edge>
    <edge id=":D_12" function="internal">
        <lane id=":D_12_0" index="0" speed="6.51" length="9.03" shape="306.87,316.97,3.77 309.32,316.62,3.77 311.07,315.57,3.77 312.12,313.82,3.77 312.47,311.37,3.77"/>
    </edge>
    <edge id=":D_13" function="internal">
        <lane id=":D_13_0" index="0" speed="30.00" length="20.80" shape="306.87,316.97,3.77 327.67,316.97,3.65"/>
        <lane id=":D_13_1" index="1" speed="30.00" length="20.80" shape="306.87,320.17,3.77 327.67,320.17,3.65"/>
    </edge>
    <edge id=":D_15" function="internal">
        <lane id=":D_15_0" index="0" speed="9.26" length="5.01" shape="306.87,320.17,3.77 311.84,320.88,3.77"/>
    </edge>
    <edge id=":D_19" function="internal">
        <lane id=":D_19_0" index="0" speed="9.26" length="14.34" shape="311.84,320.88,3.77 312.12,320.92,3.77 315.87,323.17,3.77 318.12,326.92,3.77 318.87,332.17,3.77"/>
    </edge>
    <edge id=":DA_0" function="internal">
        <lane id=":DA_0_0" index="0" speed="3.65" length="4.67" shape="315.67,4.50,3.77 316.47,3.30,3.77 317.27,2.90,3.77 318.07,3.30,3.77 318.87,4.50,3.77"/>
    </edge>
    <edge id=":DB_0" function="internal">
        <lane id=":DB_0_0" index="0" speed="3.65" length="4.67" shape="-0.00,323.37,3.77 -1.20,322.57,3.77 -1.60,321.77,3.77 -1.20,320.97,3.77 -0.00,320.17,3.77"/>
    </edge>
    <edge id=":DC_0" function="internal">
        <lane id=":DC_0_0" index="0" speed="3.65" length="4.67" shape="318.87,639.04,3.77 318.07,640.24,3.77 317.27,640.64,3.77 316.47,640.24,3.77 315.67,639.04,3.77"/>
    </edge>
    <edge id=":TL_0" function="internal">
        <lane id=":TL_0_0" index="0" speed="7.33" length="11.73" shape="632.95,332.17,0.08 632.40,329.72,0.09 630.75,327.97,0.10 628.00,326.92,0.11 624.15,326.57,0.12"/>
    </edge>
    <edge id=":TL_1" function="internal">
        <lane id=":TL_1_0" index="0" speed="25.00" length="21.09" shape="632.95,332.17,0.08 632.45,328.22,0.06 631.35,323.64,0.04 630.25,318.14,0.01 629.75,311.37,-0.02"/>
    </edge>
    <edge id=":TL_2" function="internal">
        <lane id=":TL_2_0" index="0" speed="7.33" length="11.73" shape="644.95,326.57,0.05 641.10,326.92,0.06 638.35,327.97,0.07 636.70,329.72,0.07 636.15,332.17,0.08"/>
    </edge>
    <edge id=":TL_3" function="internal">
        <lane id=":TL_3_0" index="0" speed="30.00" length="20.80" shape="644.95,326.57,0.05 624.15,326.57,0.12"/>
        <lane id=":TL_3_1" index="1" speed="30.00" length="20.80" shape="644.95,323.37,0.05 624.15,323.37,0.12"/>
    </edge>
    <edge id=":TL_5" function="internal">
        <lane id=":TL_5_0" index="0" speed="9.26" length="5.01" shape="644.95,323.37,0.05 639.98,322.66,0.04"/>
    </edge>
    <edge id=":TL_14" function="internal">
        <lane id=":TL_14_0" index="0" speed="9.26" length="14.34" shape="639.98,322.66,0.04 639.70,322.62,0.03 635.95,320.37,0.02 633.70,316.62,0.00 632.95,311.37,-0.02"/>
    </edge>
    <edge id=":TL_6" function="internal">
        <lane id=":TL_6_0" index="0" speed="6.51" length="9.03" shape="639.35,311.37,-0.02 639.70,313.82,0.00 640.75,315.57,0.02 642.50,316.62,0.03 644.95,316.97,0.05"/>
    </edge>
    <edge id=":TL_7" function="internal">
        <lane id=":TL_7_0" index="0" speed="25.00" length="20.94" shape="639.35,311.37,-0.02 638.85,318.14,0.01 637.75,323.64,0.04 636.65,328.22,0.06 636.15,332.17,0.08"/>
        <lane id=":TL_7_1" index="1" speed="25.00" length="20.94" shape="636.15,311.37,-0.02 636.15,332.17,0.08"/>
    </edge>
    <edge id=":TL_9" function="internal">
        <lane id=":TL_9_0" index="0" speed="9.26" length="9.40" shape="636.15,311.37,-0.02 635.40,316.62,0.02 633.29,320.13,0.05"/>
    </edge>
    <edge id=":TL_15" function="internal">
        <lane id=":TL_15_0" index="0" speed="9.26" length="9.96" shape="633.29,320.13,0.05 633.15,320.37,0.05 629.40,322.62,0.09 624.15,323.37,0.12"/>
    </edge>
    <edge id=":TL_10" function="internal">
        <lane id=":TL_10_0" index="0" speed="6.51" length="9.03" shape="624.15,316.97,0.12 626.60,316.62,0.09 628.35,315.57,0.05 629.40,313.82,0.02 629.75,311.37,-0.02"/>
    </edge>
    <edge id=":TL_11" function="internal">
        <lane id=":TL_11_0" index="0" speed="30.00" length="20.80" shape="624.15,316.97,0.12 644.95,316.97,0.05"/>
        <lane id=":TL_11_1" index="1" speed="30.00" length="20.80" shape="624.15,320.17,0.12 644.95,320.17,0.05"/>
    </edge>
    <edge id=":TL_13" function="internal">
        <lane id=":TL_13_0" index="0" speed="9.26" length="5.01" shape="624.15,320.17,0.12 629.11,320.88,0.11"/>
    </edge>
    <edge id=":TL_16" function="internal">
        <lane id=":TL_16_0" index="0" speed="9.26" length="14.34" shape="629.11,320.88,0.11 629.40,320.92,0.11 633.15,323.17,0.10 635.40,326.92,0.09 636.15,332.17,0.08"/>
    </edge>

    <edge id="A2AA" from="A" to="AA" priority="-1">
        <lane id="A2AA_0" index="0" speed="25.00" length="473.78" shape="627.35,804.35,3.52 153.57,804.35,3.52"/>
    </edge>
    <edge id="A2AB" from="A" to="AB" priority="-1">
        <lane id="A2AB_0" index="0" speed="25.00" length="473.78" shape="636.15,809.95,3.52 636.15,1283.73,3.52"/>
    </edge>
    <edge id="A2AC" from="A" to="AC" priority="-1">
        <lane id="A2AC_0" index="0" speed="25.00" length="473.78" shape="641.75,801.15,3.52 1115.53,801.15,3.52"/>
    </edge>
    <edge id="A2TL" from="A" to="TL" priority="-1">
        <lane id="A2TL_0" index="0" speed="25.00" length="463.39" shape="632.95,795.55,3.47 632.95,332.17,0.08"/>
    </edge>
    <edge id="AA2A" from="AA" to="A" priority="-1">
        <lane id="AA2A_0" index="0" speed="25.00" length="473.78" shape="153.57,801.15,3.52 627.35,801.15,3.52"/>
    </edge>
    <edge id="AB2A" from="AB" to="A" priority="-1">
        <lane id="AB2A_0" index="0" speed="25.00" length="473.78" shape="632.95,1283.73,3.52 632.95,809.95,3.52"/>
    </edge>
    <edge id="AC2A" from="AC" to="A" priority="-1">
        <lane id="AC2A_0" index="0" speed="25.00" length="473.78" shape="1115.53,804.35,3.52 641.75,804.35,3.52"/>
    </edge>
    <edge id="B2BA" from="B" to="BA" priority="-1">
        <lane id="B2BA_0" index="0" speed="30.00" length="311.32" shape="961.07,332.17,1.67 961.07,643.49,1.67"/>
        <lane id="B2BA_1" index="1" speed="30.00" length="311.32" shape="957.87,332.17,1.67 957.87,643.49,1.67"/>
    </edge>
    <edge id="B2BB" from="B" to="BB" priority="-1">
        <lane id="B2BB_0" index="0" speed="30.00" length="311.32" shape="966.67,316.97,1.67 1278.00,316.97,1.67"/>
        <lane id="B2BB_1" index="1" speed="30.00" length="311.32" shape="966.67,320.17,1.67 1278.00,320.17,1.67"/>
    </edge>
    <edge id="B2BC" from="B" to="BC" priority="-1">
        <lane id="B2BC_0" index="0" speed="30.00" length="311.32" shape="951.47,311.37,1.67 951.47,0.04,1.67"/>
        <lane id="B2BC_1" index="1" speed="30.00" length="311.32" shape="954.67,311.37,1.67 954.67,0.04,1.67"/>
    </edge>
    <edge id="B2TL" from="B" to="TL" priority="-1">
        <lane id="B2TL_0" index="0" speed="30.00" length="300.93" shape="945.87,326.57,1.61 644.95,326.57,0.05"/>
        <lane id="B2TL_1" index="1" speed="30.00" length="300.93" shape="945.87,323.37,1.61 644.95,323.37,0.05"/>
    </edge>
    <edge id="BA2B" from="BA" to="B" priority="-1">
        <lane id="BA2B_0" index="0" speed="30.00" length="311.32" shape="951.47,643.49,1.67 951.47,332.17,1.67"/>
        <lane id="BA2B_1" index="1" speed="30.00" length="311.32" shape="954.67,643.49,1.67 954.67,332.17,1.67"/>
    </edge>
    <edge id="BB2B" from="BB" to="B" priority="-1">
        <lane id="BB2B_0" index="0" speed="30.00" length="311.32" shape="1278.00,326.57,1.67 966.67,326.57,1.67"/>
        <lane id="BB2B_1" index="1" speed="30.00" length="311.32" shape="1278.00,323.37,1.67 966.67,323.37,1.67"/>
    </edge>
    <edge id="BC2B" from="BC" to="B" priority="-1">
        <lane id="BC2B_0" index="0" speed="30.00" length="311.32" shape="961.07,0.04,1.67 961.07,311.37,1.67"/>
        <lane id="BC2B_1" index="1" speed="30.00" length="311.32" shape="957.87,0.04,1.67 957.87,311.37,1.67"/>
    </edge>
    <edge id="C2CA" from="C" to="CA" priority="-1">
        <lane id="C2CA_0" index="0" speed="25.00" length="150.48" shape="644.95,156.08,-0.25 795.43,156.08,-0.25"/>
        <lane id="C2CA_1" index="1" speed="25.00" length="150.48" shape="644.95,159.28,-0.25 795.43,159.28,-0.25"/>
    </edge>
    <edge id="C2CB" from="C" to="CB" priority="-1">
        <lane id="C2CB_0" index="0" speed="25.00" length="150.48" shape="629.75,150.48,-0.25 629.75,0.00,-0.25"/>
        <lane id="C2CB_1" index="1" speed="25.00" length="150.48" shape="632.95,150.48,-0.25 632.95,0.00,-0.25"/>
    </edge>
    <edge id="C2CC" from="C" to="CC" priority="-1">
        <lane id="C2CC_0" index="0" speed="25.00" length="150.48" shape="624.15,165.68,-0.25 473.66,165.68,-0.25"/>
        <lane id="C2CC_1" index="1" speed="25.00" length="150.48" shape="624.15,162.48,-0.25 473.66,162.48,-0.25"/>
    </edge>
    <edge id="C2TL" from="C" to="TL" priority="-1">
        <lane id="C2TL_0" index="0" speed="25.00" length="140.08" shape="639.35,171.28,-0.23 639.35,311.37,-0.02"/>
        <lane id="C2TL_1" index="1" speed="25.00" length="140.08" shape="636.15,171.28,-0.23 636.15,311.37,-0.02"/>
    </edge>
    <edge id="CA2C" from="CA" to="C" priority="-1">
        <lane id="CA2C_0" index="0" speed="25.00" length="150.48" shape="795.43,165.68,-0.25 644.95,165.68,-0.25"/>
        <lane id="CA2C_1" index="1" speed="25.00" length="150.48" shape="795.43,162.48,-0.25 644.95,162.48,-0.25"/>
    </edge>
    <edge id="CB2C" from="CB" to="C" priority="-1">
        <lane id="CB2C_0" index="0" speed="25.00" length="150.48" shape="639.35,0.00,-0.25 639.35,150.48,-0.25"/>
        <lane id="CB2C_1" index="1" speed="25.00" length="150.48" shape="636.15,0.00,-0.25 636.15,150.48,-0.25"/>
    </edge>
    <edge id="CC2C" from="CC" to="C" priority="-1">
        <lane id="CC2C_0" index="0" speed="25.00" length="150.48" shape="473.66,156.08,-0.25 624.15,156.08,-0.25"/>
        <lane id="CC2C_1" index="1" speed="25.00" length="150.48" shape="473.66,159.28,-0.25 624.15,159.28,-0.25"/>
    </edge>
    <edge id="D2DA" from="D" to="DA" priority="-1">
        <lane id="D2DA_0" index="0" speed="30.00" length="306.87" shape="312.47,311.37,3.77 312.47,4.50,3.77"/>
        <lane id="D2DA_1" index="1" speed="30.00" length="306.87" shape="315.67,311.37,3.77 315.67,4.50,3.77"/>
    </edge>
    <edge id="D2DB" from="D" to="DB" priority="-1">
        <lane id="D2DB_0" index="0" speed="30.00" length="306.87" shape="306.87,326.57,3.77 -0.00,326.57,3.77"/>
        <lane id="D2DB_1" index="1" speed="30.00" length="306.87" shape="306.87,323.37,3.77 -0.00,323.37,3.77"/>
    </edge>
    <edge id="D2DC" from="D" to="DC" priority="-1">
        <lane id="D2DC_0" index="0" speed="30.00" length="306.87" shape="322.07,332.17,3.77 322.07,639.04,3.77"/>
        <lane id="D2DC_1" index="1" speed="30.00" length="306.87" shape="318.87,332.17,3.77 318.87,639.04,3.77"/>
    </edge>
    <edge id="D2TL" from="D" to="TL" priority="-1">
        <lane id="D2TL_0" index="0" speed="30.00" length="296.49" shape="327.67,316.97,3.65 624.15,316.97,0.12"/>
        <lane id="D2TL_1" index="1" speed="30.00" length="296.49" shape="327.67,320.17,3.65 624.15,320.17,0.12"/>
    </edge>
    <edge id="DA2D" from="DA" to="D" priority="-1">
        <lane id="DA2D_0" index="0" speed="30.00" length="306.87" shape="322.07,4.50,3.77 322.07,311.37,3.77"/>
        <lane id="DA2D_1" index="1" speed="30.00" length="306.87" shape="318.87,4.50,3.77 318.87,311.37,3.77"/>
    </edge>
    <edge id="DB2D" from="DB" to="D" priority="-1">
        <lane id="DB2D_0" index="0" speed="30.00" length="306.87" shape="-0.00,316.97,3.77 306.87,316.97,3.77"/>
        <lane id="DB2D_1" index="1" speed="30.00" length="306.87" shape="-0.00,320.17,3.77 306.87,320.17,3.77"/>
    </edge>
    <edge id="DC2D" from="DC" to="D" priority="-1">
        <lane id="DC2D_0" index="0" speed="30.00" length="306.87" shape="312.47,639.04,3.77 312.47,332.17,3.77"/>
        <lane id="DC2D_1" index="1" speed="30.00" length="306.87" shape="315.67,639.04,3.77 315.67,332.17,3.77"/>
    </edge>
    <edge id="TL2A" from="TL" to="A" priority="-1">
        <lane id="TL2A_0" index="0" speed="25.00" length="463.39" shape="636.15,332.17,0.08 636.15,795.55,3.47"/>
    </edge>
    <edge id="TL2B" from="TL" to="B" priority="-1">
        <lane id="TL2B_0" index="0" speed="30.00" length="300.93" shape="644.95,316.97,0.05 945.87,316.97,1.61"/>
        <lane id="TL2B_1" index="1" speed="30.00" length="300.93" shape="644.95,320.17,0.05 945.87,320.17,1.61"/>
    </edge>
    <edge id="TL2C" from="TL" to="C" priority="-1">
        <lane id="TL2C_0" index="0" speed="25.00" length="140.08" shape="629.75,311.37,-0.02 629.75,171.28,-0.23"/>
        <lane id="TL2C_1" index="1" speed="25.00" length="140.08" shape="632.95,311.37,-0.02 632.95,171.28,-0.23"/>
    </edge>
    <edge id="TL2D" from="TL" to="D" priority="-1">
        <lane id="TL2D_0" index="0" speed="30.00" length="296.49" shape="624.15,326.57,0.12 327.67,326.57,3.65"/>
        <lane id="TL2D_1" index="1" speed="30.00" length="296.49" shape="624.15,323.37,0.12 327.67,323.37,3.65"/>
    </edge>

    <tlLogic id="A" type="static" programID="0" offset="0">
        <phase duration="40" state="GGrrGGrr"/>
        <phase duration="5"  state="yyrryyrr"/>
        <phase duration="40" state="rrGGrrGG"/>
        <phase duration="5"  state="rryyrryy"/>
    </tlLogic>
    <tlLogic id="AA" type="static" programID="0" offset="0">
        <phase duration="80" state="G"/>
        <phase duration="5"  state="y"/>
        <phase duration="5"  state="r"/>
    </tlLogic>
    <tlLogic id="AB" type="static" programID="0" offset="0">
        <phase duration="80" state="G"/>
        <phase duration="5"  state="y"/>
        <phase duration="5"  state="r"/>
    </tlLogic>
    <tlLogic id="AC" type="static" programID="0" offset="0">
        <phase duration="80" state="G"/>
        <phase duration="5"  state="y"/>
        <phase duration="5"  state="r"/>
    </tlLogic>
    <tlLogic id="B" type="static" programID="0" offset="0">
        <phase duration="39" state="GGGgrrrrGGGgrrrr"/>
        <phase duration="6"  state="yyyyrrrryyyyrrrr"/>
        <phase duration="39" state="rrrrGGGgrrrrGGGg"/>
        <phase duration="6"  state="rrrryyyyrrrryyyy"/>
    </tlLogic>
    <tlLogic id="BA" type="static" programID="0" offset="0">
        <phase duration="79" state="G"/>
        <phase duration="6"  state="y"/>
        <phase duration="5"  state="r"/>
    </tlLogic>
    <tlLogic id="BB" type="static" programID="0" offset="0">
        <phase duration="79" state="G"/>
        <phase duration="6"  state="y"/>
        <phase duration="5"  state="r"/>
    </tlLogic>
    <tlLogic id="BC" type="static" programID="0" offset="0">
        <phase duration="79" state="G"/>
        <phase duration="6"  state="y"/>
        <phase duration="5"  state="r"/>
    </tlLogic>
    <tlLogic id="C" type="static" programID="0" offset="0">
        <phase duration="40" state="GGGgrrrrGGGgrrrr"/>
        <phase duration="5"  state="yyyyrrrryyyyrrrr"/>
        <phase duration="40" state="rrrrGGGgrrrrGGGg"/>
        <phase duration="5"  state="rrrryyyyrrrryyyy"/>
    </tlLogic>
    <tlLogic id="CA" type="static" programID="0" offset="0">
        <phase duration="80" state="G"/>
        <phase duration="5"  state="y"/>
        <phase duration="5"  state="r"/>