<?xml version="1.0" encoding="UTF-8"?>

<!-- generated on 2022-10-11 16:45:11 by Eclipse SUMO netconvert Version 1.14.1
<configuration xmlns:xsi="http://www.w3.org/2001/XMLSchema-instance" xsi:noNamespaceSchemaLocation="http://sumo.dlr.de/xsd/netconvertConfiguration.xsd">

    <input>
        <node-files value="../data/salt-lake-city/nodes.nod.xml"/>
        <edge-files value="../data/salt-lake-city/edges.edg.xml"/>
        <connection-files value="../data/salt-lake-city/connections.con.xml"/>
    </input>

    <output>
        <output-file value="../data/salt-lake-city/sumo/net/107.net.xml"/>
    </output>

    <tls_building>
        <tls.minor-left.max-speed value="1"/>
    </tls_building>

    <report>
        <verbose value="true"/>
    </report>

</configuration>
-->

<net version="1.9" junctionCornerDetail="5" limitTurnSpeed="5.50" xmlns:xsi="http://www.w3.org/2001/XMLSchema-instance" xsi:noNamespaceSchemaLocation="http://sumo.dlr.de/xsd/net_file.xsd">

    <location netOffset="318.00,355.81" convBoundary="0.00,0.00,884.10,991.81" origBoundary="-318.00,-355.81,566.10,636.00" projParameter="!"/>

    <edge id=":A_0" function="internal">
        <lane id=":A_0_0" index="0" speed="6.51" length="9.03" shape="313.20,684.21,-7.66 312.85,681.76,-7.66 311.80,680.01,-7.66 310.05,678.96,-7.66 307.60,678.61,-7.66"/>
    </edge>
    <edge id=":A_1" function="internal">
        <lane id=":A_1_0" index="0" speed="30.00" length="20.80" shape="313.20,684.21,-7.66 313.20,663.41,-7.66"/>
        <lane id=":A_1_1" index="1" speed="30.00" length="20.80" shape="316.40,684.21,-7.66 316.40,663.41,-7.66"/>
    </edge>
    <edge id=":A_3" function="internal">
        <lane id=":A_3_0" index="0" speed="9.26" length="5.01" shape="316.40,684.21,-7.66 317.11,679.25,-7.66"/>
    </edge>
    <edge id=":A_16" function="internal">
        <lane id=":A_16_0" index="0" speed="9.26" length="14.34" shape="317.11,679.25,-7.66 317.15,678.96,-7.66 319.40,675.21,-7.66 323.15,672.96,-7.66 328.40,672.21,-7.66"/>
    </edge>
    <edge id=":A_4" function="internal">
        <lane id=":A_4_0" index="0" speed="6.51" length="9.03" shape="328.40,678.61,-7.66 325.95,678.96,-7.66 324.20,680.01,-7.66 323.15,681.76,-7.66 322.80,684.21,-7.66"/>
    </edge>
    <edge id=":A_5" function="internal">
        <lane id=":A_5_0" index="0" speed="30.00" length="20.80" shape="328.40,678.61,-7.66 307.60,678.61,-7.66"/>
        <lane id=":A_5_1" index="1" speed="30.00" length="20.80" shape="328.40,675.41,-7.66 307.60,675.41,-7.66"/>
    </edge>
    <edge id=":A_7" function="internal">
        <lane id=":A_7_0" index="0" speed="9.26" length="5.01" shape="328.40,675.41,-7.66 323.44,674.70,-7.66"/>
    </edge>
    <edge id=":A_17" function="internal">
        <lane id=":A_17_0" index="0" speed="9.26" length="14.34" shape="323.44,674.70,-7.66 323.15,674.66,-7.66 319.40,672.41,-7.66 317.15,668.66,-7.66 316.40,663.41,-7.66"/>
    </edge>
    <edge id=":A_8" function="internal">
        <lane id=":A_8_0" index="0" speed="6.51" length="9.03" shape="322.80,663.41,-7.66 323.15,665.86,-7.66 324.20,667.61,-7.66 325.95,668.66,-7.66 328.40,669.01,-7.66"/>
    </edge>
    <edge id=":A_9" function="internal">
        <lane id=":A_9_0" index="0" speed="30.00" length="20.80" shape="322.80,663.41,-7.66 322.80,684.21,-7.66"/>
        <lane id=":A_9_1" index="1" speed="30.00" length="20.80" shape="319.60,663.41,-7.66 319.60,684.21,-7.66"/>
    </edge>
    <edge id=":A_11" function="internal">
        <lane id=":A_11_0" index="0" speed="9.26" length="5.01" shape="319.60,663.41,-7.66 318.89,668.37,-7.66"/>
    </edge>
    <edge id=":A_18" function="internal">
        <lane id=":A_18_0" index="0" speed="9.26" length="14.34" shape="318.89,668.37,-7.66 318.85,668.66,-7.66 316.60,672.41,-7.66 312.85,674.66,-7.66 307.60,675.41,-7.66"/>
    </edge>
    <edge id=":A_12" function="internal">
        <lane id=":A_12_0" index="0" speed="6.51" length="9.03" shape="307.60,669.01,-7.66 310.05,668.66,-7.66 311.80,667.61,-7.66 312.85,665.86,-7.66 313.20,663.41,-7.66"/>
    </edge>
    <edge id=":A_13" function="internal">
        <lane id=":A_13_0" index="0" speed="30.00" length="20.80" shape="307.60,669.01,-7.66 328.40,669.01,-7.66"/>
        <lane id=":A_13_1" index="1" speed="30.00" length="20.80" shape="307.60,672.21,-7.66 328.40,672.21,-7.66"/>
    </edge>
    <edge id=":A_15" function="internal">
        <lane id=":A_15_0" index="0" speed="9.26" length="5.01" shape="307.60,672.21,-7.66 312.57,672.92,-7.66"/>
    </edge>
    <edge id=":A_19" function="internal">
        <lane id=":A_19_0" index="0" speed="9.26" length="14.34" shape="312.57,672.92,-7.66 312.85,672.96,-7.66 316.60,675.21,-7.66 318.85,678.96,-7.66 319.60,684.21,-7.66"/>
    </edge>
    <edge id=":AA_0" function="internal">
        <lane id=":AA_0_0" index="0" speed="3.65" length="4.67" shape="0.00,675.41,-7.66 -1.20,674.61,-7.66 -1.60,673.81,-7.66 -1.20,673.01,-7.66 -0.00,672.21,-7.66"/>
    </edge>
    <edge id=":AB_0" function="internal">
        <lane id=":AB_0_0" index="0" speed="3.65" length="4.67" shape="319.60,991.81,-7.66 318.80,993.01,-7.66 318.00,993.41,-7.66 317.20,993.01,-7.66 316.40,991.81,-7.66"/>
    </edge>
    <edge id=":AC_0" function="internal">
        <lane id=":AC_0_0" index="0" speed="3.65" length="4.67" shape="636.00,672.21,-7.66 637.20,673.01,-7.66 637.60,673.81,-7.66 637.20,674.61,-7.66 636.00,675.41,-7.66"/>
    </edge>
    <edge id=":B_0" function="internal">
        <lane id=":B_0_0" index="0" speed="6.51" length="9.03" shape="596.25,366.21,-8.54 595.90,363.76,-8.54 594.85,362.01,-8.54 593.10,360.96,-8.54 590.65,360.61,-8.54"/>
    </edge>
    <edge id=":B_1" function="internal">
        <lane id=":B_1_0" index="0" speed="30.00" length="20.80" shape="596.25,366.21,-8.54 596.25,345.41,-8.54"/>
        <lane id=":B_1_1" index="1" speed="30.00" length="20.80" shape="599.45,366.21,-8.54 599.45,345.41,-8.54"/>
    </edge>
    <edge id=":B_3" function="internal">
        <lane id=":B_3_0" index="0" speed="9.26" length="5.01" shape="599.45,366.21,-8.54 600.16,361.25,-8.54"/>
    </edge>
    <edge id=":B_16" function="internal">
        <lane id=":B_16_0" index="0" speed="9.26" length="14.34" shape="600.16,361.25,-8.54 600.20,360.96,-8.54 602.45,357.21,-8.54 606.20,354.96,-8.54 611.45,354.21,-8.54"/>
    </edge>
    <edge id=":B_4" function="internal">
        <lane id=":B_4_0" index="0" speed="6.51" length="9.03" shape="611.45,360.61,-8.54 609.00,360.96,-8.54 607.25,362.01,-8.54 606.20,363.76,-8.54 605.85,366.21,-8.54"/>
    </edge>
    <edge id=":B_5" function="internal">
        <lane id=":B_5_0" index="0" speed="30.00" length="20.80" shape="611.45,360.61,-8.54 590.65,360.61,-8.54"/>
        <lane id=":B_5_1" index="1" speed="30.00" length="20.80" shape="611.45,357.41,-8.54 590.65,357.41,-8.54"/>
    </edge>
    <edge id=":B_7" function="internal">
        <lane id=":B_7_0" index="0" speed="9.26" length="5.01" shape="611.45,357.41,-8.54 606.49,356.70,-8.54"/>
    </edge>
    <edge id=":B_17" function="internal">
        <lane id=":B_17_0" index="0" speed="9.26" length="14.34" shape="606.49,356.70,-8.54 606.20,356.66,-8.54 602.45,354.41,-8.54 600.20,350.66,-8.54 599.45,345.41,-8.54"/>
    </edge>
    <edge id=":B_8" function="internal">
        <lane id=":B_8_0" index="0" speed="6.51" length="9.03" shape="605.85,345.41,-8.54 606.20,347.86,-8.54 607.25,349.61,-8.54 609.00,350.66,-8.54 611.45,351.01,-8.54"/>
    </edge>
    <edge id=":B_9" function="internal">
        <lane id=":B_9_0" index="0" speed="30.00" length="20.80" shape="605.85,345.41,-8.54 605.85,366.21,-8.54"/>
        <lane id=":B_9_1" index="1" speed="30.00" length="20.80" shape="602.65,345.41,-8.54 602.65,366.21,-8.54"/>
    </edge>
    <edge id=":B_11" function="internal">
        <lane id=":B_11_0" index="0" speed="9.26" length="5.01" shape="602.65,345.41,-8.54 601.94,350.37,-8.54"/>
    </edge>
    <edge id=":B_18" function="internal">
        <lane id=":B_18_0" index="0" speed="9.26" length="14.34" shape="601.94,350.37,-8.54 601.90,350.66,-8.54 599.65,354.41,-8.54 595.90,356.66,-8.54 590.65,357.41,-8.54"/>
    </edge>
    <edge id=":B_12" function="internal">
        <lane id=":B_12_0" index="0" speed="6.51" length="9.03" shape="590.65,351.01,-8.54 593.10,350.66,-8.54 594.85,349.61,-8.54 595.90,347.86,-8.54 596.25,345.41,-8.54"/>
    </edge>
    <edge id=":B_13" function="internal">
        <lane id=":B_13_0" index="0" speed="30.00" length="20.80" shape="590.65,351.01,-8.54 611.45,351.01,-8.54"/>
        <lane id=":B_13_1" index="1" speed="30.00" length="20.80" shape="590.65,354.21,-8.54 611.45,354.21,-8.54"/>
    </edge>
    <edge id=":B_15" function="internal">
        <lane id=":B_15_0" index="0" speed="9.26" length="5.01" shape="590.65,354.21,-8.54 595.62,354.92,-8.54"/>
    </edge>
    <edge id=":B_19" function="internal">
        <lane id=":B_19_0" index="0" speed="9.26" length="14.34" shape="595.62,354.92,-8.54 595.90,354.96,-8.54 599.65,357.21,-8.54 601.90,360.96,-8.54 602.65,366.21,-8.54"/>
    </edge>
    <edge id=":BA_0" function="internal">
        <lane id=":BA_0_0" index="0" speed="3.65" length="4.67" shape="602.65,638.86,-8.54 601.85,640.06,-8.54 601.05,640.46,-8.54 600.25,640.06,-8.54 599.45,638.86,-8.54"/>
    </edge>
    <edge id=":BB_0" function="internal">
        <lane id=":BB_0_0" index="0" speed="3.65" length="4.67" shape="884.10,354.21,-8.54 885.30,355.01,-8.54 885.70,355.81,-8.54 885.30,356.61,-8.54 884.10,357.41,-8.54"/>
    </edge>
    <edge id=":BC_0" function="internal">
        <lane id=":BC_0_0" index="0" speed="3.65" length="4.67" shape="599.45,72.76,-8.54 600.25,71.56,-8.54 601.05,71.16,-8.54 601.85,71.56,-8.54 602.65,72.76,-8.54"/>
    </edge>
    <edge id=":C_0" function="internal">
        <lane id=":C_0_0" index="0" speed="6.51" length="9.03" shape="316.40,185.10,-6.67 316.05,182.65,-6.67 315.00,180.90,-6.67 313.25,179.85,-6.67 310.80,179.50,-6.67"/>
    </edge>
    <edge id=":C_1" function="internal">
        <lane id=":C_1_0" index="0" speed="25.00" length="14.40" shape="316.40,185.10,-6.67 316.40,170.70,-6.67"/>
    </edge>
    <edge id=":C_2" function="internal">
        <lane id=":C_2_0" index="0" speed="6.51" length="9.03" shape="325.20,179.50,-6.67 322.75,179.85,-6.67 321.00,180.90,-6.67 319.95,182.65,-6.67 319.60,185.10,-6.67"/>
    </edge>
    <edge id=":C_3" function="internal">
        <lane id=":C_3_0" index="0" speed="25.00" length="14.40" shape="325.20,179.50,-6.67 310.80,179.50,-6.67"/>
    </edge>
    <edge id=":C_4" function="internal">
        <lane id=":C_4_0" index="0" speed="6.51" length="9.03" shape="319.60,170.70,-6.67 319.95,173.15,-6.67 321.00,174.90,-6.67 322.75,175.95,-6.67 325.20,176.30,-6.67"/>
    </edge>
    <edge id=":C_5" function="internal">
        <lane id=":C_5_0" index="0" speed="25.00" length="14.40" shape="319.60,170.70,-6.67 319.60,185.10,-6.67"/>
    </edge>
    <edge id=":C_6" function="internal">
        <lane id=":C_6_0" index="0" speed="6.51" length="9.03" shape="310.80,176.30,-6.67 313.25,175.95,-6.67 315.00,174.90,-6.67 316.05,173.15,-6.67 316.40,170.70,-6.67"/>
    </edge>
    <edge id=":C_7" function="internal">
        <lane id=":C_7_0" index="0" speed="25.00" length="14.40" shape="310.80,176.30,-6.67 325.20,176.30,-6.67"/>
    </edge>
    <edge id=":CA_0" function="internal">
        <lane id=":CA_0_0" index="0" speed="3.65" length="4.67" shape="495.91,176.30,-6.67 497.11,177.10,-6.67 497.51,177.90,-6.67 497.11,178.70,-6.67 495.91,179.50,-6.67"/>
    </edge>
    <edge id=":CB_0" function="internal">
        <lane id=":CB_0_0" index="0" speed="3.65" length="4.67" shape="316.40,-0.00,-6.67 317.20,-1.20,-6.67 318.00,-1.60,-6.67 318.80,-1.20,-6.67 319.60,-0.00,-6.67"/>
    </edge>
    <edge id=":CC_0" function="internal">
        <lane id=":CC_0_0" index="0" speed="3.65" length="4.67" shape="140.10,179.50,-6.67 138.90,178.70,-6.67 138.50,177.90,-6.67 138.90,177.10,-6.67 140.10,176.30,-6.67"/>
    </edge>
    <edge id=":D_0" function="internal">
        <lane id=":D_0_0" index="0" speed="6.51" length="9.03" shape="155.44,366.21,-5.91 155.09,363.76,-5.91 154.04,362.01,-5.91 152.29,360.96,-5.91 149.84,360.61,-5.91"/>
    </edge>
    <edge id=":D_1" function="internal">
        <lane id=":D_1_0" index="0" speed="30.00" length="20.80" shape="155.44,366.21,-5.91 155.44,345.41,-5.91"/>
        <lane id=":D_1_1" index="1" speed="30.00" length="20.80" shape="158.64,366.21,-5.91 158.64,345.41,-5.91"/>
    </edge>
    <edge id=":D_3" function="internal">
        <lane id=":D_3_0" index="0" speed="9.26" length="5.01" shape="158.64,366.21,-5.91 159.35,361.25,-5.91"/>
    </edge>
    <edge id=":D_16" function="internal">
        <lane id=":D_16_0" index="0" speed="9.26" length="14.34" shape="159.35,361.25,-5.91 159.39,360.96,-5.91 161.64,357.21,-5.91 165.39,354.96,-5.91 170.64,354.21,-5.91"/>
    </edge>
    <edge id=":D_4" function="internal">
        <lane id=":D_4_0" index="0" speed="6.51" length="9.03" shape="170.64,360.61,-5.91 168.19,360.96,-5.91 166.44,362.01,-5.91 165.39,363.76,-5.91 165.04,366.21,-5.91"/>
    </edge>
    <edge id=":D_5" function="internal">
        <lane id=":D_5_0" index="0" speed="30.00" length="20.80" shape="170.64,360.61,-5.91 149.84,360.61,-5.91"/>
        <lane id=":D_5_1" index="1" speed="30.00" length="20.80" shape="170.64,357.41,-5.91 149.84,357.41,-5.91"/>
    </edge>
    <edge id=":D_7" function="internal">
        <lane id=":D_7_0" index="0" speed="9.26" length="5.01" shape="170.64,357.41,-5.91 165.67,356.70,-5.91"/>
    </edge>
    <edge id=":D_17" function="internal">
        <lane id=":D_17_0" index="0" speed="9.26" length="14.34" shape="165.67,356.70,-5.91 165.39,356.66,-5.91 161.64,354.41,-5.91 159.39,350.66,-5.91 158.64,345.41,-5.91"/>
    </edge>
    <edge id=":D_8" function="internal">
        <lane id=":D_8_0" index="0" speed="6.51" length="9.03" shape="165.04,345.41,-5.91 165.39,347.86,-5.91 166.44,349.61,-5.91 168.19,350.66,-5.91 170.64,351.01,-5.91"/>
    </edge>
    <edge id=":D_9" function="internal">
        <lane id=":D_9_0" index="0" speed="30.00" length="20.80" shape="165.04,345.41,-5.91 165.04,366.21,-5.91"/>
        <lane id=":D_9_1" index="1" speed="30.00" length="20.80" shape="161.84,345.41,-5.91 161.84,366.21,-5.91"/>
    </edge>
    <edge id=":D_11" function="internal">
        <lane id=":D_11_0" index="0" speed="9.26" length="5.01" shape="161.84,345.41,-5.91 161.13,350.37,-5.91"/>
    </edge>
    <edge id=":D_18" function="internal">
        <lane id=":D_18_0" index="0" speed="9.26" length="14.34" shape="161.13,350.37,-5.91 161.09,350.66,-5.91 158.84,354.41,-5.91 155.09,356.66,-5.91 149.84,357.41,-5.91"/>
    </edge>
    <edge id=":D_12" function="internal">
        <lane id=":D_12_0" index="0" speed="6.51" length="9.03" shape="149.84,351.01,-5.91 152.29,350.66,-5.91 154.04,349.61,-5.91 155.09,347.86,-5.91 155.44,345.41,-5.91"/>
    </edge>
    <edge id=":D_13" function="internal">
        <lane id=":D_13_0" index="0" speed="30.00" length="20.80" shape="149.84,351.01,-5.91 170.64,351.01,-5.91"/>
        <lane id=":D_13_1" index="1" speed="30.00" length="20.80" shape="149.84,354.21,-5.91 170.64,354.21,-5.91"/>
    </edge>
    <edge id=":D_15" function="internal">
        <lane id=":D_15_0" index="0" speed="9.26" length="5.01" shape="149.84,354.21,-5.91 154.80,354.92,-5.91"/>
    </edge>
    <edge id=":D_19" function="internal">
        <lane id=":D_19_0" index="0" speed="9.26" length="14.34" shape="154.80,354.92,-5.91 155.09,354.96,-5.91 158.84,357.21,-5.91 161.09,360.96,-5.91 161.84,366.21,-5.91"/>
    </edge>
    <edge id=":DA_0" function="internal">
        <lane id=":DA_0_0" index="0" speed="3.65" length="4.67" shape="158.64,198.04,-5.91 159.44,196.84,-5.91 160.24,196.44,-5.91 161.04,196.84,-5.91 161.84,198.04,-5.91"/>
    </edge>
    <edge id=":DB_0" function="internal">
        <lane id=":DB_0_0" index="0" speed="3.65" length="4.67" shape="2.47,357.41,-5.91 1.27,356.61,-5.91 0.87,355.81,-5.91 1.27,355.01,-5.91 2.47,354.21,-5.91"/>
    </edge>
    <edge id=":DC_0" function="internal">
        <lane id=":DC_0_0" index="0" speed="3.65" length="4.67" shape="161.84,513.57,-5.91 161.04,514.77,-5.91 160.24,515.17,-5.91 159.44,514.77,-5.91 158.64,513.57,-5.91"/>
    </edge>
    <edge id=":TL_0" function="internal">
        <lane id=":TL_0_0" index="0" speed="6.51" length="9.03" shape="313.20,366.21 312.85,363.76 311.80,362.01 310.05,360.96 307.60,360.61"/>
    </edge>
    <edge id=":TL_1" function="internal">
        <lane id=":TL_1_0" index="0" speed="27.50" length="20.94" shape="313.20,366.21 313.70,359.44 314.80,353.93 315.90,349.36 316.40,345.41"/>
        <lane id=":TL_1_1" index="1" speed="27.50" length="20.94" shape="316.40,366.21 316.40,345.41"/>
    </edge>
    <edge id=":TL_3" function="internal">
        <lane id=":TL_3_0" index="0" speed="9.26" length="9.40" shape="316.40,366.21 317.15,360.96 319.26,357.45"/>
    </edge>
    <edge id=":TL_14" function="internal">
        <lane id=":TL_14_0" index="0" speed="9.26" length="9.96" shape="319.26,357.45 319.40,357.21 323.15,354.96 328.40,354.21"/>
    </edge>
    <edge id=":TL_4" function="internal">
        <lane id=":TL_4_0" index="0" speed="6.51" length="9.03" shape="328.40,360.61 325.95,360.96 324.20,362.01 323.15,363.76 322.80,366.21"/>
    </edge>
    <edge id=":TL_5" function="internal">
        <lane id=":TL_5_0" index="0" speed="30.00" length="20.80" shape="328.40,360.61 307.60,360.61"/>
        <lane id=":TL_5_1" index="1" speed="30.00" length="20.80" shape="328.40,357.41 307.60,357.41"/>
    </edge>
    <edge id=":TL_7" function="internal">
        <lane id=":TL_7_0" index="0" speed="9.26" length="5.01" shape="328.40,357.41 323.44,356.70"/>
    </edge>
    <edge id=":TL_15" function="internal">
        <lane id=":TL_15_0" index="0" speed="9.26" length="14.34" shape="323.44,356.70 323.15,356.66 319.40,354.41 317.15,350.66 316.40,345.41"/>
    </edge>
    <edge id=":TL_8" function="internal">
        <lane id=":TL_8_0" index="0" speed="7.33" length="11.73" shape="319.60,345.41 320.15,347.86 321.80,349.61 324.55,350.66 328.40,351.01"/>
    </edge>
    <edge id=":TL_9" function="internal">
        <lane id=":TL_9_0" index="0" speed="27.50" length="21.09" shape="319.60,345.41 320.10,349.36 321.20,353.93 322.30,359.44 322.80,366.21"/>
    </edge>
    <edge id=":TL_10" function="internal">
        <lane id=":TL_10_0" index="0" speed="7.33" length="11.73" shape="307.60,351.01 311.45,350.66 314.20,349.61 315.85,347.86 316.40,345.41"/>
    </edge>
    <edge id=":TL_11" function="internal">
        <lane id=":TL_11_0" index="0" speed="30.00" length="20.80" shape="307.60,351.01 328.40,351.01"/>
        <lane id=":TL_11_1" index="1" speed="30.00" length="20.80" shape="307.60,354.21 328.40,354.21"/>
    </edge>
    <edge id=":TL_13" function="internal">
        <lane id=":TL_13_0" index="0" speed="9.26" length="5.01" shape="307.60,354.21 312.57,354.92"/>
    </edge>
    <edge id=":TL_16" function="internal">
        <lane id=":TL_16_0" index="0" speed="9.26" length="14.34" shape="312.57,354.92 312.85,354.96 316.60,357.21 318.85,360.96 319.60,366.21"/>
    </edge>

    <edge id="A2AA" from="A" to="AA" priority="-1">
        <lane id="A2AA_0" index="0" speed="30.00" length="307.60" shape="307.60,678.61,-7.66 0.00,678.61,-7.66"/>
        <lane id="A2AA_1" index="1" speed="30.00" length="307.60" shape="307.60,675.41,-7.66 0.00,675.41,-7.66"/>
    </edge>
    <edge id="A2AB" from="A" to="AB" priority="-1">
        <lane id="A2AB_0" index="0" speed="30.00" length="307.60" shape="322.80,684.21,-7.66 322.80,991.81,-7.66"/>
        <lane id="A2AB_1" index="1" speed="30.00" length="307.60" shape="319.60,684.21,-7.66 319.60,991.81,-7.66"/>
    </edge>
    <edge id="A2AC" from="A" to="AC" priority="-1">
        <lane id="A2AC_0" index="0" speed="30.00" length="307.60" shape="328.40,669.01,-7.66 636.00,669.01,-7.66"/>
        <lane id="A2AC_1" index="1" speed="30.00" length="307.60" shape="328.40,672.21,-7.66 636.00,672.21,-7.66"/>
    </edge>
    <edge id="A2TL" from="A" to="TL" priority="-1">
        <lane id="A2TL_0" index="0" speed="30.00" length="297.30" shape="313.20,663.41,-7.66 313.20,366.21"/>
        <lane id="A2TL_1" index="1" speed="30.00" length="297.30" shape="316.40,663.41,-7.66 316.40,366.21"/>
    </edge>
    <edge id="AA2A" from="AA" to="A" priority="-1">
        <lane id="AA2A_0" index="0" speed="30.00" length="307.60" shape="-0.00,669.01,-7.66 307.60,669.01,-7.66"/>
        <lane id="AA2A_1" index="1" speed="30.00" length="307.60" shape="-0.00,672.21,-7.66 307.60,672.21,-7.66"/>
    </edge>
    <edge id="AB2A" from="AB" to="A" priority="-1">
        <lane id="AB2A_0" index="0" speed="30.00" length="307.60" shape="313.20,991.81,-7.66 313.20,684.21,-7.66"/>
        <lane id="AB2A_1" index="1" speed="30.00" length="307.60" shape="316.40,991.81,-7.66 316.40,684.21,-7.66"/>
    </edge>
    <edge id="AC2A" from="AC" to="A" priority="-1">
        <lane id="AC2A_0" index="0" speed="30.00" length="307.60" shape="636.00,678.61,-7.66 328.40,678.61,-7.66"/>
        <lane id="AC2A_1" index="1" speed="30.00" length="307.60" shape="636.00,675.41,-7.66 328.40,675.41,-7.66"/>
    </edge>
    <edge id="B2BA" from="B" to="BA" priority="-1">
        <lane id="B2BA_0" index="0" speed="30.00" length="272.65" shape="605.85,366.21,-8.54 605.85,638.86,-8.54"/>
        <lane id="B2BA_1" index="1" speed="30.00" length="272.65" shape="602.65,366.21,-8.54 602.65,638.86,-8.54"/>
    </edge>
    <edge id="B2BB" from="B" to="BB" priority="-1">
        <lane id="B2BB_0" index="0" speed="30.00" length="272.65" shape="611.45,351.01,-8.54 884.10,351.01,-8.54"/>
        <lane id="B2BB_1" index="1" speed="30.00" length="272.65" shape="611.45,354.21,-8.54 884.10,354.21,-8.54"/>
    </edge>
    <edge id="B2BC" from="B" to="BC" priority="-1">
        <lane id="B2BC_0" index="0" speed="30.00" length="272.65" shape="596.25,345.41,-8.54 596.25,72.76,-8.54"/>
        <lane id="B2BC_1" index="1" speed="30.00" length="272.65" shape="599.45,345.41,-8.54 599.45,72.76,-8.54"/>
    </edge>
    <edge id="B2TL" from="B" to="TL" priority="-1">
        <lane id="B2TL_0" index="0" speed="30.00" length="262.39" shape="590.65,360.61,-8.54 328.40,360.61"/>
        <lane id="B2TL_1" index="1" speed="30.00" length="262.39" shape="590.65,357.41,-8.54 328.40,357.41"/>
    </edge>
    <edge id="BA2B" from="BA" to="B" priority="-1">
        <lane id="BA2B_0" index="0" speed="30.00" length="272.65" shape="596.25,638.86,-8.54 596.25,366.21,-8.54"/>
        <lane id="BA2B_1" index="1" speed="30.00" length="272.65" shape="599.45,638.86,-8.54 599.45,366.21,-8.54"/>
    </edge>
    <edge id="BB2B" from="BB" to="B" priority="-1">
        <lane id="BB2B_0" index="0" speed="30.00" length="272.65" shape="884.10,360.61,-8.54 611.45,360.61,-8.54"/>
        <lane id="BB2B_1" index="1" speed="30.00" length="272.65" shape="884.10,357.41,-8.54 611.45,357.41,-8.54"/>
    </edge>
    <edge id="BC2B" from="BC" to="B" priority="-1">
        <lane id="BC2B_0" index="0" speed="30.00" length="272.65" shape="605.85,72.76,-8.54 605.85,345.41,-8.54"/>
        <lane id="BC2B_1" index="1" speed="30.00" length="272.65" shape="602.65,72.76,-8.54 602.65,345.41,-8.54"/>
    </edge>
    <edge id="C2CA" from="C" to="CA" priority="-1">
        <lane id="C2CA_0" index="0" speed="25.00" length="170.70" shape="325.20,176.30,-6.67 495.91,176.30,-6.67"/>
    </edge>
    <edge id="C2CB" from="C" to="CB" priority="-1">
        <lane id="C2CB_0" index="0" speed="25.00" length="170.70" shape="316.40,170.70,-6.67 316.40,-0.00,-6.67"/>
    </edge>
    <edge id="C2CC" from="C" to="CC" priority="-1">
        <lane id="C2CC_0" index="0" speed="25.00" length="170.70" shape="310.80,179.50,-6.67 140.10,179.50,-6.67"/>
    </edge>
    <edge id="C2TL" from="C" to="TL" priority="-1">
        <lane id="C2TL_0" index="0" speed="25.00" length="160.44" shape="319.60,185.10,-6.67 319.60,345.41"/>
    </edge>
    <edge id="CA2C" from="CA" to="C" priority="-1">
        <lane id="CA2C_0" index="0" speed="25.00" length="170.70" shape="495.91,179.50,-6.67 325.20,179.50,-6.67"/>
    </edge>
    <edge id="CB2C" from="CB" to="C" priority="-1">
        <lane id="CB2C_0" index="0" speed="25.00" length="170.70" shape="319.60,-0.00,-6.67 319.60,170.70,-6.67"/>
    </edge>
    <edge id="CC2C" from="CC" to="C" priority="-1">
        <lane id="CC2C_0" index="0" speed="25.00" length="170.70" shape="140.10,176.30,-6.67 310.80,176.30,-6.67"/>
    </edge>
    <edge id="D2DA" from="D" to="DA" priority="-1">
        <lane id="D2DA_0" index="0" speed="30.00" length="147.37" shape="155.44,345.41,-5.91 155.44,198.04,-5.91"/>
        <lane id="D2DA_1" index="1" speed="30.00" length="147.37" shape="158.64,345.41,-5.91 158.64,198.04,-5.91"/>
    </edge>
    <edge id="D2DB" from="D" to="DB" priority="-1">
        <lane id="D2DB_0" index="0" speed="30.00" length="147.37" shape="149.84,360.61,-5.91 2.47,360.61,-5.91"/>
        <lane id="D2DB_1" index="1" speed="30.00" length="147.37" shape="149.84,357.41,-5.91 2.47,357.41,-5.91"/>
    </edge>
    <edge id="D2DC" from="D" to="DC" priority="-1">
        <lane id="D2DC_0" index="0" speed="30.00" length="147.37" shape="165.04,366.21,-5.91 165.04,513.57,-5.91"/>
        <lane id="D2DC_1" index="1" speed="30.00" length="147.37" shape="161.84,366.21,-5.91 161.84,513.57,-5.91"/>
    </edge>
    <edge id="D2TL" from="D" to="TL" priority="-1">
        <lane id="D2TL_0" index="0" speed="30.00" length="137.09" shape="170.64,351.01,-5.91 307.60,351.01"/>
        <lane id="D2TL_1" index="1" speed="30.00" length="137.09" shape="170.64,354.21,-5.91 307.60,354.21"/>
    </edge>
    <edge id="DA2D" from="DA" to="D" priority="-1">
        <lane id="DA2D_0" index="0" speed="30.00" length="147.37" shape="165.04,198.04,-5.91 165.04,345.41,-5.91"/>
        <lane id="DA2D_1" index="1" speed="30.00" length="147.37" shape="161.84,198.04,-5.91 161.84,345.41,-5.91"/>
    </edge>
    <edge id="DB2D" from="DB" to="D" priority="-1">
        <lane id="DB2D_0" index="0" speed="30.00" length="147.37" shape="2.47,351.01,-5.91 149.84,351.01,-5.91"/>
        <lane id="DB2D_1" index="1" speed="30.00" length="147.37" shape="2.47,354.21,-5.91 149.84,354.21,-5.91"/>
    </edge>
    <edge id="DC2D" from="DC" to="D" priority="-1">
        <lane id="DC2D_0" index="0" speed="30.00" length="147.37" shape="155.44,513.57,-5.91 155.44,366.21,-5.91"/>
        <lane id="DC2D_1" index="1" speed="30.00" length="147.37" shape="158.64,513.57,-5.91 158.64,366.21,-5.91"/>
    </edge>
    <edge id="TL2A" from="TL" to="A" priority="-1">
        <lane id="TL2A_0" index="0" speed="30.00" length="297.30" shape="322.80,366.21 322.80,663.41,-7.66"/>
        <lane id="TL2A_1" index="1" speed="30.00" length="297.30" shape="319.60,366.21 319.60,663.41,-7.66"/>
    </edge>
    <edge id="TL2B" from="TL" to="B" priority="-1">
        <lane id="TL2B_0" index="0" speed="30.00" length="262.39" shape="328.40,351.01 590.65,351.01,-8.54"/>
        <lane id="TL2B_1" index="1" speed="30.00" length="262.39" shape="328.40,354.21 590.65,354.21,-8.54"/>
    </edge>
    <edge id="TL2C" from="TL" to="C" priority="-1">
        <lane id="TL2C_0" index="0" speed="25.00" length="160.44" shape="316.40,345.41 316.40,185.10,-6.67"/>
    </edge>
    <edge id="TL2D" from="TL" to="D" priority="-1">
        <lane id="TL2D_0" index="0" speed="30.00" length="137.09" shape="307.60,360.61 170.64,360.61,-5.91"/>
        <lane id="TL2D_1" index="1" speed="30.00" length="137.09" shape="307.60,357.41 170.64,357.41,-5.91"/>
    </edge>

    <tlLogic id="A" type="static" programID="0" offset="0">
        <phase duration="39" state="GGGgrrrrGGGgrrrr"/>
        <phase duration="6"  state="yyyyrrrryyyyrrrr"/>
        <phase duration="39" state="rrrrGGGgrrrrGGGg"/>
        <phase duration="6"  state="rrrryyyyrrrryyyy"/>
    </tlLogic>
    <tlLogic id="AA" type="static" programID="0" offset="0">
        <phase duration="79" state="G"/>
        <phase duration="6"  state="y"/>
        <phase duration="5"  state="r"/>
    </tlLogic>
    <tlLogic id="AB" type="static" programID="0" offset="0">
        <phase duration="79" state="G"/>
        <phase duration="6"  state="y"/>
        <phase duration="5"  state="r"/>
    </tlLogic>
    <tlLogic id="AC" type="static" programID="0" offset="0">
        <phase duration="79" state="G"/>
        <phase duration="6"  state="y"/>
        <phase duration="5"  state="r"/>
    </tlLogic>
    <tlLogic id="B" type="static" programID="0" offset="0">
        <phase duration="39" state="GGGgrrrrGGGgrrrr"/>
        <phase duration="6"  state="yyyyrrrryyyyrrrr"/>
        <phase duration="39" state="rrrrGGGgrrrrGGGg"/>
        <phase duration="6"  state="rrrryyyyrrrryyyy"/>
    </tlLogic>
    <tlLogic id="BA" type="static" programID="0" offset="0">
        <phase duration="79" state="G"/>
        <phase duration="6"  state="y"/>
        <phase duration="5"  state="r"/>
    </tlLogic>
    <tlLogic id="BB" type="static" programID="0" offset="0">
        <phase duration="79" state="G"/>
        <phase duration="6"  state="y"/>
        <phase duration="5"  state="r"/>
    </tlLogic>
    <tlLogic id="BC" type="static" programID="0" offset="0">
        <phase duration="79" state="G"/>
        <phase duration="6"  state="y"/>
        <phase duration="5"  state="r"/>
    </tlLogic>
    <tlLogic id="C" type="static" programID="0" offset="0">
        <phase duration="40" state="GGrrGGrr"/>
        <phase duration="5"  state="yyrryyrr"/>
        <phase duration="40" state="rrGGrrGG"/>
        <phase duration="5"  state="rryyrryy"/>
    </tlLogic>
    <tlLogic id="CA" type="static" programID="0" offset="0">
        <phase duration="80" state="G"/>
        <phase duration="5"  state="y"/>
        <phase duration="5"  state="r"/>
    </tlLogic>
    <tlLogic id="CB" type="static" programID="0" offset="0">
        <phase duration="80" state="G"/>