<?xml version="1.0" encoding="UTF-8"?>

<!-- generated on 2022-10-11 16:45:12 by Eclipse SUMO netconvert Version 1.14.1
<configuration xmlns:xsi="http://www.w3.org/2001/XMLSchema-instance" xsi:noNamespaceSchemaLocation="http://sumo.dlr.de/xsd/netconvertConfiguration.xsd">

    <input>
        <node-files value="../data/salt-lake-city/nodes.nod.xml"/>
        <edge-files value="../data/salt-lake-city/edges.edg.xml"/>
        <connection-files value="../data/salt-lake-city/connections.con.xml"/>
    </input>

    <output>
        <output-file value="../data/salt-lake-city/sumo/net/114.net.xml"/>
    </output>

    <tls_building>
        <tls.minor-left.max-speed value="1"/>
    </tls_building>

    <report>
        <verbose value="true"/>
    </report>

</configuration>
-->

<net version="1.9" junctionCornerDetail="5" limitTurnSpeed="5.50" xmlns:xsi="http://www.w3.org/2001/XMLSchema-instance" xsi:noNamespaceSchemaLocation="http://sumo.dlr.de/xsd/net_file.xsd">

    <location netOffset="662.63,1134.68" convBoundary="0.00,0.00,1229.97,1747.28" origBoundary="-662.63,-1134.68,567.34,612.60" projParameter="!"/>

    <edge id=":B_0" function="internal">
        <lane id=":B_0_0" index="0" speed="7.33" length="11.73" shape="825.52,1148.28,8.69 825.17,1144.43,8.69 824.12,1141.68,8.69 822.37,1140.03,8.69 819.92,1139.48,8.69"/>
    </edge>
    <edge id=":B_1" function="internal">
        <lane id=":B_1_0" index="0" speed="30.00" length="27.36" shape="825.52,1148.28,8.69 826.02,1139.66,8.69 827.12,1133.29,8.69 828.22,1127.62,8.69 828.72,1121.08,8.69"/>
        <lane id=":B_1_1" index="1" speed="30.00" length="27.36" shape="828.72,1148.28,8.69 829.22,1139.66,8.69 830.32,1133.29,8.69 831.42,1127.62,8.69 831.92,1121.08,8.69"/>
        <lane id=":B_1_2" index="2" speed="30.00" length="27.36" shape="831.92,1148.28,8.69 831.92,1121.08,8.69"/>
    </edge>
    <edge id=":B_4" function="internal">
        <lane id=":B_4_0" index="0" speed="10.36" length="5.01" shape="831.92,1148.28,8.69 832.63,1143.32,8.69"/>
    </edge>
    <edge id=":B_20" function="internal">
        <lane id=":B_20_0" index="0" speed="10.36" length="19.50" shape="832.63,1143.32,8.69 832.87,1141.63,8.69 835.72,1136.88,8.69 840.47,1134.03,8.69 847.12,1133.08,8.69"/>
    </edge>
    <edge id=":B_5" function="internal">
        <lane id=":B_5_0" index="0" speed="7.33" length="11.73" shape="847.12,1142.68,8.69 843.27,1143.03,8.69 840.52,1144.08,8.69 838.87,1145.83,8.69 838.32,1148.28,8.69"/>
    </edge>
    <edge id=":B_6" function="internal">
        <lane id=":B_6_0" index="0" speed="30.00" length="27.36" shape="847.12,1142.68,8.69 838.50,1142.18,8.69 832.13,1141.08,8.69 826.46,1139.98,8.69 819.92,1139.48,8.69"/>
        <lane id=":B_6_1" index="1" speed="30.00" length="27.36" shape="847.12,1139.48,8.69 838.50,1138.98,8.69 832.13,1137.88,8.69 826.46,1136.78,8.69 819.92,1136.28,8.69"/>
        <lane id=":B_6_2" index="2" speed="30.00" length="27.36" shape="847.12,1136.28,8.69 819.92,1136.28,8.69"/>
    </edge>
    <edge id=":B_9" function="internal">
        <lane id=":B_9_0" index="0" speed="10.36" length="5.01" shape="847.12,1136.28,8.69 842.15,1135.57,8.69"/>
    </edge>
    <edge id=":B_21" function="internal">
        <lane id=":B_21_0" index="0" speed="10.36" length="19.50" shape="842.15,1135.57,8.69 840.47,1135.33,8.69 835.72,1132.48,8.69 832.87,1127.73,8.69 831.92,1121.08,8.69"/>
    </edge>
    <edge id=":B_10" function="internal">
        <lane id=":B_10_0" index="0" speed="7.33" length="11.73" shape="841.52,1121.08,8.69 841.87,1124.93,8.69 842.92,1127.68,8.69 844.67,1129.33,8.69 847.12,1129.88,8.69"/>
    </edge>
    <edge id=":B_11" function="internal">
        <lane id=":B_11_0" index="0" speed="30.00" length="27.36" shape="841.52,1121.08,8.69 841.02,1129.70,8.69 839.92,1136.06,8.69 838.82,1141.74,8.69 838.32,1148.28,8.69"/>
        <lane id=":B_11_1" index="1" speed="30.00" length="27.36" shape="838.32,1121.08,8.69 837.82,1129.70,8.69 836.72,1136.06,8.69 835.62,1141.74,8.69 835.12,1148.28,8.69"/>
        <lane id=":B_11_2" index="2" speed="30.00" length="27.36" shape="835.12,1121.08,8.69 835.12,1148.28,8.69"/>
    </edge>
    <edge id=":B_14" function="internal">
        <lane id=":B_14_0" index="0" speed="10.36" length="5.01" shape="835.12,1121.08,8.69 834.41,1126.04,8.69"/>
    </edge>
    <edge id=":B_22" function="internal">
        <lane id=":B_22_0" index="0" speed="10.36" length="19.50" shape="834.41,1126.04,8.69 834.17,1127.73,8.69 831.32,1132.48,8.69 826.57,1135.33,8.69 819.92,1136.28,8.69"/>
    </edge>
    <edge id=":B_15" function="internal">
        <lane id=":B_15_0" index="0" speed="7.33" length="11.73" shape="819.92,1126.68,8.69 823.77,1126.33,8.69 826.52,1125.28,8.69 828.17,1123.53,8.69 828.72,1121.08,8.69"/>
    </edge>
    <edge id=":B_16" function="internal">
        <lane id=":B_16_0" index="0" speed="30.00" length="27.36" shape="819.92,1126.68,8.69 828.54,1127.18,8.69 834.90,1128.28,8.69 840.57,1129.38,8.69 847.12,1129.88,8.69"/>
        <lane id=":B_16_1" index="1" speed="30.00" length="27.36" shape="819.92,1129.88,8.69 828.54,1130.38,8.69 834.90,1131.48,8.69 840.57,1132.58,8.69 847.12,1133.08,8.69"/>
        <lane id=":B_16_2" index="2" speed="30.00" length="27.36" shape="819.92,1133.08,8.69 847.12,1133.08,8.69"/>
    </edge>
    <edge id=":B_19" function="internal">
        <lane id=":B_19_0" index="0" speed="10.36" length="5.01" shape="819.92,1133.08,8.69 824.88,1133.79,8.69"/>
    </edge>
    <edge id=":B_23" function="internal">
        <lane id=":B_23_0" index="0" speed="10.36" length="19.50" shape="824.88,1133.79,8.69 826.57,1134.03,8.69 831.32,1136.88,8.69 834.17,1141.63,8.69 835.12,1148.28,8.69"/>
    </edge>
    <edge id=":BA_0" function="internal">
        <lane id=":BA_0_0" index="0" speed="3.65" length="4.67" shape="835.12,1305.56,8.69 834.32,1306.76,8.69 833.52,1307.16,8.69 832.72,1306.76,8.69 831.92,1305.56,8.69"/>
    </edge>
    <edge id=":BB_0" function="internal">
        <lane id=":BB_0_0" index="0" speed="3.65" length="4.67" shape="1004.40,1133.08,8.69 1005.60,1133.88,8.69 1006.00,1134.68,8.69 1005.60,1135.48,8.69 1004.40,1136.28,8.69"/>
    </edge>
    <edge id=":BC_0" function="internal">
        <lane id=":BC_0_0" index="0" speed="3.65" length="4.67" shape="831.92,963.80,8.69 832.72,962.60,8.69 833.52,962.20,8.69 834.32,962.60,8.69 835.12,963.80,8.69"/>
    </edge>
    <edge id=":B_intern_0" function="internal">
        <lane id=":B_intern_0_0" index="0" speed="30.00" length="8.55" shape="716.63,1139.48,2.77 714.17,1139.98,2.65 712.63,1141.08,2.56 711.10,1142.18,2.46 708.63,1142.68,2.34"/>
        <lane id=":B_intern_0_1" index="1" speed="30.00" length="8.55" shape="716.63,1136.28,2.77 714.17,1136.78,2.65 712.63,1137.88,2.56 711.10,1138.98,2.46 708.63,1139.48,2.34"/>
        <lane id=":B_intern_0_2" index="2" speed="30.00" length="8.55" shape="716.63,1136.28,2.77 708.63,1136.28,2.34"/>
    </edge>
    <edge id=":C_0" function="internal">
        <lane id=":C_0_0" index="0" speed="6.51" length="9.03" shape="661.03,574.54,3.41 660.68,572.09,3.43 659.63,570.34,3.44 657.88,569.29,3.45 655.43,568.94,3.46"/>
    </edge>
    <edge id=":C_1" function="internal">
        <lane id=":C_1_0" index="0" speed="25.00" length="14.40" shape="661.03,574.54,3.41 661.03,560.14,3.46"/>
    </edge>
    <edge id=":C_2" function="internal">
        <lane id=":C_2_0" index="0" speed="6.51" length="9.03" shape="669.83,568.94,3.46 667.38,569.29,3.45 665.63,570.34,3.44 664.58,572.09,3.43 664.23,574.54,3.41"/>
    </edge>
    <edge id=":C_3" function="internal">
        <lane id=":C_3_0" index="0" speed="25.00" length="14.40" shape="669.83,568.94,3.46 655.43,568.94,3.46"/>
    </edge>
    <edge id=":C_4" function="internal">
        <lane id=":C_4_0" index="0" speed="6.51" length="9.03" shape="664.23,560.14,3.46 664.58,562.59,3.46 665.63,564.34,3.46 667.38,565.39,3.46 669.83,565.74,3.46"/>
    </edge>
    <edge id=":C_5" function="internal">
        <lane id=":C_5_0" index="0" speed="25.00" length="14.40" shape="664.23,560.14,3.46 664.23,574.54,3.41"/>
    </edge>
    <edge id=":C_6" function="internal">
        <lane id=":C_6_0" index="0" speed="6.51" length="9.03" shape="655.43,565.74,3.46 657.88,565.39,3.46 659.63,564.34,3.46 660.68,562.59,3.46 661.03,560.14,3.46"/>
    </edge>
    <edge id=":C_7" function="internal">
        <lane id=":C_7_0" index="0" speed="25.00" length="14.40" shape="655.43,565.74,3.46 669.83,565.74,3.46"/>
    </edge>
    <edge id=":CA_0" function="internal">
        <lane id=":CA_0_0" index="0" speed="3.65" length="4.67" shape="1229.97,565.74,3.46 1231.17,566.54,3.46 1231.57,567.34,3.46 1231.17,568.14,3.46 1229.97,568.94,3.46"/>
    </edge>
    <edge id=":CB_0" function="internal">
        <lane id=":CB_0_0" index="0" speed="3.65" length="4.67" shape="661.03,-0.00,3.46 661.83,-1.20,3.46 662.63,-1.60,3.46 663.43,-1.20,3.46 664.23,-0.00,3.46"/>
    </edge>
    <edge id=":CC_0" function="internal">
        <lane id=":CC_0_0" index="0" speed="3.65" length="4.67" shape="95.29,568.94,3.46 94.09,568.14,3.46 93.69,567.34,3.46 94.09,566.54,3.46 95.29,565.74,3.46"/>
    </edge>
    <edge id=":D_0" function="internal">
        <lane id=":D_0_0" index="0" speed="7.33" length="11.73" shape="326.52,1148.28,23.31 325.97,1145.83,23.31 324.32,1144.08,23.31 321.57,1143.03,23.31 317.72,1142.68,23.31"/>
    </edge>
    <edge id=":D_1" function="internal">
        <lane id=":D_1_0" index="0" speed="40.00" length="27.43" shape="326.52,1148.28,23.31 326.02,1141.74,23.31 324.92,1136.06,23.31 323.82,1129.70,23.31 323.32,1121.08,23.31"/>
        <lane id=":D_1_1" index="1" speed="40.00" length="27.43" shape="329.72,1148.28,23.31 329.22,1141.74,23.31 328.12,1136.06,23.31 327.02,1129.70,23.31 326.52,1121.08,23.31"/>
    </edge>
    <edge id=":D_3" function="internal">
        <lane id=":D_3_0" index="0" speed="10.36" length="10.84" shape="329.72,1148.28,23.31 330.67,1141.63,23.31 332.79,1138.09,23.31"/>
    </edge>
    <edge id=":D_16" function="internal">
        <lane id=":D_16_0" index="0" speed="10.36" length="13.67" shape="332.79,1138.09,23.31 333.52,1136.88,23.31 338.27,1134.03,23.31 344.92,1133.08,23.31"/>
    </edge>
    <edge id=":D_4" function="internal">
        <lane id=":D_4_0" index="0" speed="7.33" length="11.73" shape="344.92,1139.48,23.31 342.47,1140.03,23.31 340.72,1141.68,23.31 339.67,1144.43,23.31 339.32,1148.28,23.31"/>
    </edge>
    <edge id=":D_5" function="internal">
        <lane id=":D_5_0" index="0" speed="40.00" length="27.43" shape="344.92,1139.48,23.31 338.37,1139.98,23.31 332.70,1141.08,23.31 326.34,1142.18,23.31 317.72,1142.68,23.31"/>
        <lane id=":D_5_1" index="1" speed="40.00" length="27.43" shape="344.92,1136.28,23.31 338.37,1136.78,23.31 332.70,1137.88,23.31 326.34,1138.98,23.31 317.72,1139.48,23.31"/>
    </edge>
    <edge id=":D_7" function="internal">
        <lane id=":D_7_0" index="0" speed="10.36" length="10.84" shape="344.92,1136.28,23.31 338.27,1135.33,23.31 334.73,1133.21,23.31"/>
    </edge>
    <edge id=":D_17" function="internal">
        <lane id=":D_17_0" index="0" speed="10.36" length="13.67" shape="334.73,1133.21,23.31 333.52,1132.48,23.31 330.67,1127.73,23.31 329.72,1121.08,23.31"/>
    </edge>
    <edge id=":D_8" function="internal">
        <lane id=":D_8_0" index="0" speed="7.33" length="11.73" shape="336.12,1121.08,23.31 336.67,1123.53,23.31 338.32,1125.28,23.31 341.07,1126.33,23.31 344.92,1126.68,23.31"/>
    </edge>
    <edge id=":D_9" function="internal">
        <lane id=":D_9_0" index="0" speed="40.00" length="27.43" shape="336.12,1121.08,23.31 336.62,1127.62,23.31 337.72,1133.29,23.31 338.82,1139.66,23.31 339.32,1148.28,23.31"/>
        <lane id=":D_9_1" index="1" speed="40.00" length="27.43" shape="332.92,1121.08,23.31 333.42,1127.62,23.31 334.52,1133.29,23.31 335.62,1139.66,23.31 336.12,1148.28,23.31"/>
    </edge>
    <edge id=":D_11" function="internal">
        <lane id=":D_11_0" index="0" speed="10.36" length="10.84" shape="332.92,1121.08,23.31 331.97,1127.73,23.31 329.84,1131.27,23.31"/>
    </edge>
    <edge id=":D_18" function="internal">
        <lane id=":D_18_0" index="0" speed="10.36" length="13.67" shape="329.84,1131.27,23.31 329.12,1132.48,23.31 324.37,1135.33,23.31 317.72,1136.28,23.31"/>
    </edge>
    <edge id=":D_12" function="internal">
        <lane id=":D_12_0" index="0" speed="7.33" length="11.73" shape="317.72,1129.88,23.31 320.17,1129.33,23.31 321.92,1127.68,23.31 322.97,1124.93,23.31 323.32,1121.08,23.31"/>
    </edge>
    <edge id=":D_13" function="internal">
        <lane id=":D_13_0" index="0" speed="40.00" length="27.43" shape="317.72,1129.88,23.31 324.26,1129.38,23.31 329.93,1128.28,23.31 336.30,1127.18,23.31 344.92,1126.68,23.31"/>
        <lane id=":D_13_1" index="1" speed="40.00" length="27.43" shape="317.72,1133.08,23.31 324.26,1132.58,23.31 329.93,1131.48,23.31 336.30,1130.38,23.31 344.92,1129.88,23.31"/>
    </edge>
    <edge id=":D_15" function="internal">
        <lane id=":D_15_0" index="0" speed="10.36" length="10.84" shape="317.72,1133.08,23.31 324.37,1134.03,23.31 327.91,1136.15,23.31"/>
    </edge>
    <edge id=":D_19" function="internal">
        <lane id=":D_19_0" index="0" speed="10.36" length="13.67" shape="327.91,1136.15,23.31 329.12,1136.88,23.31 331.97,1141.63,23.31 332.92,1148.28,23.31"/>
    </edge>
    <edge id=":DA_0" function="internal">
        <lane id=":DA_0_0" index="0" speed="3.65" length="4.67" shape="329.72,803.36,23.31 330.52,802.16,23.31 331.32,801.76,23.31 332.12,802.16,23.31 332.92,803.36,23.31"/>
    </edge>
    <edge id=":DB_0" function="internal">
        <lane id=":DB_0_0" index="0" speed="3.65" length="4.67" shape="0.00,1136.28,23.31 -1.20,1135.48,23.31 -1.60,1134.68,23.31 -1.20,1133.88,23.31 0.00,1133.08,23.31"/>
    </edge>
    <edge id=":DC_0" function="internal">
        <lane id=":DC_0_0" index="0" speed="3.65" length="4.67" shape="332.92,1466.00,23.31 332.12,1467.20,23.31 331.32,1467.60,23.31 330.52,1467.20,23.31 329.72,1466.00,23.31"/>
    </edge>
    <edge id=":TL_0" function="internal">
        <lane id=":TL_0_0" index="0" speed="6.51" length="9.03" shape="669.83,1142.68 667.38,1143.03 665.63,1144.08 664.58,1145.83 664.23,1148.28"/>
    </edge>
    <edge id=":TL_1" function="internal">
        <lane id=":TL_1_0" index="0" speed="35.00" length="14.86" shape="669.83,1142.68 665.51,1142.18 662.63,1141.08 659.76,1139.98 655.43,1139.48"/>
        <lane id=":TL_1_1" index="1" speed="35.00" length="14.86" shape="669.83,1139.48 665.51,1138.98 662.63,1137.88 659.76,1136.78 655.43,1136.28"/>
    </edge>
    <edge id=":TL_3" function="internal">
        <lane id=":TL_3_0" index="0" speed="9.32" length="7.76" shape="669.83,1136.28 665.98,1135.33,0.02 663.35,1132.60,0.03"/>
    </edge>
    <edge id=":TL_10" function="internal">
        <lane id=":TL_10_0" index="0" speed="9.32" length="11.87" shape="663.35,1132.60,0.03 663.23,1132.48,0.03 661.58,1127.73,0.05 661.03,1121.08,0.08"/>
    </edge>
    <edge id=":TL_4" function="internal">
        <lane id=":TL_4_0" index="0" speed="6.51" length="9.03" shape="664.23,1121.08,0.08 664.58,1123.53,0.06 665.63,1125.28,0.04 667.38,1126.33,0.02 669.83,1126.68"/>
    </edge>
    <edge id=":TL_5" function="internal">
        <lane id=":TL_5_0" index="0" speed="25.00" length="27.20" shape="664.23,1121.08,0.08 664.23,1148.28"/>
    </edge>
    <edge id=":TL_6" function="internal">
        <lane id=":TL_6_0" index="0" speed="6.51" length="9.03" shape="655.43,1126.68 657.88,1126.33,0.02 659.63,1125.28,0.04 660.68,1123.53,0.06 661.03,1121.08,0.08"/>
    </edge>
    <edge id=":TL_7" function="internal">
        <lane id=":TL_7_0" index="0" speed="35.00" length="14.40" shape="655.43,1126.68 669.83,1126.68"/>
        <lane id=":TL_7_1" index="1" speed="35.00" length="14.40" shape="655.43,1129.88 669.83,1129.88"/>
    </edge>
    <edge id=":TL_9" function="internal">
        <lane id=":TL_9_0" index="0" speed="9.32" length="3.97" shape="655.43,1133.08 659.28,1134.03"/>
    </edge>
    <edge id=":TL_11" function="internal">
        <lane id=":TL_11_0" index="0" speed="9.32" length="15.66" shape="659.28,1134.03 662.03,1136.88 663.68,1141.63 664.23,1148.28"/>
    </edge>

    <edge id="AA2A" from="AA" to="A" priority="-1">
        <lane id="AA2A_0" index="0" speed="25.00" length="301.60" shape="356.33,1439.38,5.13 657.93,1439.38,5.13"/>
    </edge>
    <edge id="AB2A" from="AB" to="A" priority="-1">
        <lane id="AB2A_0" index="0" speed="25.00" length="301.60" shape="661.03,1747.28,5.13 661.03,1445.68,5.13"/>
    </edge>
    <edge id="AC2A" from="AC" to="A" priority="-1">
        <lane id="AC2A_0" index="0" speed="25.00" length="301.60" shape="968.93,1442.58,5.13 667.33,1442.58,5.13"/>
    </edge>
    <edge id="B2BA" from="B" to="BA" priority="-1">
        <lane id="B2BA_0" index="0" speed="30.00" length="157.28" shape="838.32,1148.28,8.69 838.32,1305.56,8.69"/>
        <lane id="B2BA_1" index="1" speed="30.00" length="157.28" shape="835.12,1148.28,8.69 835.12,1305.56,8.69"/>
    </edge>
    <edge id="B2BB" from="B" to="BB" priority="-1">
        <lane id="B2BB_0" index="0" speed="30.00" length="157.28" shape="847.12,1129.88,8.69 1004.40,1129.88,8.69"/>
        <lane id="B2BB_1" index="1" speed="30.00" length="157.28" shape="847.12,1133.08,8.69 1004.40,1133.08,8.69"/>
    </edge>
    <edge id="B2BC" from="B" to="BC" priority="-1">
        <lane id="B2BC_0" index="0" speed="30.00" length="157.28" shape="828.72,1121.08,8.69 828.72,963.80,8.69"/>
        <lane id="B2BC_1" index="1" speed="30.00" length="157.28" shape="831.92,1121.08,8.69 831.92,963.80,8.69"/>
    </edge>
    <edge id="B2TL" from="B" to="B_intern" priority="-1">
        <lane id="B2TL_0" index="0" speed="30.00" length="103.45" shape="819.92,1139.48,8.69 716.63,1139.48,2.77"/>
        <lane id="B2TL_1" index="1" speed="30.00" length="103.45" shape="819.92,1136.28,8.69 716.63,1136.28,2.77"/>
    </edge>
    <edge id="B2TL_intern" from="B_intern" to="TL" priority="-1">
        <lane id="B2TL_intern_0" index="0" speed="30.00" length="38.87" shape="708.63,1142.68,2.34 669.83,1142.68"/>
        <lane id="B2TL_intern_1" index="1" speed="30.00" length="38.87" shape="708.63,1139.48,2.34 669.83,1139.48"/>
        <lane id="B2TL_intern_2" index="2" speed="30.00" length="38.87" shape="708.63,1136.28,2.34 669.83,1136.28"/>
    </edge>
    <edge id="BA2B" from="BA" to="B" priority="-1">
        <lane id="BA2B_0" index="0" speed="30.00" length="157.28" shape="825.52,1305.56,8.69 825.52,1148.28,8.69"/>
        <lane id="BA2B_1" index="1" speed="30.00" length="157.28" shape="828.72,1305.56,8.69 828.72,1148.28,8.69"/>
        <lane id="BA2B_2" index="2" speed="30.00" length="157.28" shape="831.92,1305.56,8.69 831.92,1148.28,8.69"/>
    </edge>
    <edge id="BB2B" from="BB" to="B" priority="-1">
        <lane id="BB2B_0" index="0" speed="30.00" length="157.28" shape="1004.40,1142.68,8.69 847.12,1142.68,8.69"/>
        <lane id="BB2B_1" index="1" speed="30.00" length="157.28" shape="1004.40,1139.48,8.69 847.12,1139.48,8.69"/>
        <lane id="BB2B_2" index="2" speed="30.00" length="157.28" shape="1004.40,1136.28,8.69 847.12,1136.28,8.69"/>
    </edge>
    <edge id="BC2B" from="BC" to="B" priority="-1">
        <lane id="BC2B_0" index="0" speed="30.00" length="157.28" shape="841.52,963.80,8.69 841.52,1121.08,8.69"/>
        <lane id="BC2B_1" index="1" speed="30.00" length="157.28" shape="838.32,963.80,8.69 838.32,1121.08,8.69"/>
        <lane id="BC2B_2" index="2" speed="30.00" length="157.28" shape="835.12,963.80,8.69 835.12,1121.08,8.69"/>
    </edge>
    <edge id="C2CA" from="C" to="CA" priority="-1">
        <lane id="C2CA_0" index="0" speed="25.00" length="560.14" shape="669.83,565.74,3.46 1229.97,565.74,3.46"/>
    </edge>
    <edge id="C2CB" from="C" to="CB" priority="-1">
        <lane id="C2CB_0" index="0" speed="25.00" length="560.14" shape="661.03,560.14,3.46 661.03,-0.00,3.46"/>
    </edge>
    <edge id="C2CC" from="C" to="CC" priority="-1">
        <lane id="C2CC_0" index="0" speed="25.00" length="560.14" shape="655.43,568.94,3.46 95.29,568.94,3.46"/>
    </edge>
    <edge id="C2TL" from="C" to="TL" priority="-1">
        <lane id="C2TL_0" index="0" speed="25.00" length="546.55" shape="664.23,574.54,3.41 664.23,1121.08,0.08"/>
    </edge>
    <edge id="CA2C" from="CA" to="C" priority="-1">
        <lane id="CA2C_0" index="0" speed="25.00" length="560.14" shape="1229.97,568.94,3.46 669.83,568.94,3.46"/>
    </edge>
    <edge id="CB2C" from="CB" to="C" priority="-1">
        <lane id="CB2C_0" index="0" speed="25.00" length="560.14" shape="664.23,-0.00,3.46 664.23,560.14,3.46"/>
    </edge>
    <edge id="CC2C" from="CC" to="C" priority="-1">
        <lane id="CC2C_0" index="0" speed="25.00" length="560.14" shape="95.29,565.74,3.46 655.43,565.74,3.46"/>
    </edge>
    <edge id="D2DA" from="D" to="DA" priority="-1">
        <lane id="D2DA_0" index="0" speed="40.00" length="317.72" shape="323.32,1121.08,23.31 323.32,803.36,23.31"/>
        <lane id="D2DA_1" index="1" speed="40.00" length="317.72" shape="326.52,1121.08,23.31 326.52,803.36,23.31"/>
        <lane id="D2DA_2" index="2" speed="40.00" length="317.72" shape="329.72,1121.08,23.31 329.72,803.36,23.31"/>
    </edge>
    <edge id="D2DB" from="D" to="DB" priority="-1">
        <lane id="D2DB_0" index="0" speed="40.00" length="317.72" shape="317.72,1142.68,23.31 0.00,1142.68,23.31"/>
        <lane id="D2DB_1" index="1" speed="40.00" length="317.72" shape="317.72,1139.48,23.31 0.00,1139.48,23.31"/>
        <lane id="D2DB_2" index="2" speed="40.00" length="317.72" shape="317.72,1136.28,23.31 0.00,1136.28,23.31"/>
    </edge>
    <edge id="D2DC" from="D" to="DC" priority="-1">
        <lane id="D2DC_0" index="0" speed="40.00" length="317.72" shape="339.32,1148.28,23.31 339.32,1466.00,23.31"/>
        <lane id="D2DC_1" index="1" speed="40.00" length="317.72" shape="336.12,1148.28,23.31 336.12,1466.00,23.31"/>
        <lane id="D2DC_2" index="2" speed="40.00" length="317.72" shape="332.92,1148.28,23.31 332.92,1466.00,23.31"/>
    </edge>
    <edge id="D2TL" from="D" to="TL" priority="-1">
        <lane id="D2TL_0" index="0" speed="40.00" length="311.39" shape="344.92,1126.68,23.31 655.43,1126.68"/>
        <lane id="D2TL_1" index="1" speed="40.00" length="311.39" shape="344.92,1129.88,23.31 655.43,1129.88"/>
        <lane id="D2TL_2" index="2" speed="40.00" length="311.39" shape="344.92,1133.08,23.31 655.43,1133.08"/>
    </edge>
    <edge id="DA2D" from="DA" to="D" priority="-1">
        <lane id="DA2D_0" index="0" speed="40.00" length="317.72" shape="336.12,803.36,23.31 336.12,1121.08,23.31"/>
        <lane id="DA2D_1" index="1" speed="40.00" length="317.72" shape="332.92,803.36,23.31 332.92,1121.08,23.31"/>
    </edge>
    <edge id="DB2D" from="DB" to="D" priority="-1">
        <lane id="DB2D_0" index="0" speed="40.00" length="317.72" shape="0.00,1129.88,23.31 317.72,1129.88,23.31"/>
        <lane id="DB2D_1" index="1" speed="40.00" length="317.72" shape="0.00,1133.08,23.31 317.72,1133.08,23.31"/>
    </edge>
    <edge id="DC2D" from="DC" to="D" priority="-1">
        <lane id="DC2D_0" index="0" speed="40.00" length="317.72" shape="326.52,1466.00,23.31 326.52,1148.28,23.31"/>
        <lane id="DC2D_1" index="1" speed="40.00" length="317.72" shape="329.72,1466.00,23.31 329.72,1148.28,23.31"/>
    </edge>
    <edge id="TL2A" from="TL" to="A" priority="-1">
        <lane id="TL2A_0" index="0" speed="25.00" length="288.04" shape="664.23,1148.28 664.23,1436.28,5.05"/>
    </edge>
    <edge id="TL2B" from="TL" to="B" priority="-1">
        <lane id="TL2B_0" index="0" speed="30.00" length="150.33" shape="669.83,1126.68 819.92,1126.68,8.69"/>
        <lane id="TL2B_1" index="1" speed="30.00" length="150.33" shape="669.83,1129.88 819.92,1129.88,8.69"/>
        <lane id="TL2B_2" index="2" speed="30.00" length="150.33" shape="669.83,1133.08 819.92,1133.08,8.69"/>
    </edge>
    <edge id="TL2C" from="TL" to="C" priority="-1">
        <lane id="TL2C_0" index="0" speed="25.00" length="546.55" shape="661.03,1121.08,0.08 661.03,574.54,3.41"/>
    </edge>
    <edge id="TL2D" from="TL" to="D" priority="-1">
        <lane id="TL2D_0" index="0" speed="40.00" length="311.39" shape="655.43,1139.48 344.92,1139.48,23.31"/>
        <lane id="TL2D_1" index="1" speed="40.00" length="311.39" shape="655.43,1136.28 344.92,1136.28,23.31"/>
    </edge>

    <tlLogic id="B" type="static" programID="0" offset="0">
        <phase duration="39" state="GGgGgrrrrrGGgGgrrrrr"/>
        <phase duration="6"  state="yyyyyrrrrryyyyyrrrrr"/>
        <phase duration="39" state="rrrrrGGgGgrrrrrGGgGg"/>
        <phase duration="6"  state="rrrrryyyyyrrrrryyyyy"/>
    </tlLogic>
    <tlLogic id="BA" type="static" programID="0" offset="0">
        <phase duration="79" state="G"/>
        <phase duration="6"  state="y"/>
        <phase duration="5"  state="r"/>
    </tlLogic>
    <tlLogic id="BB" type="static" programID="0" offset="0">
        <phase duration="79" state="G"/>
        <phase duration="6"  state="y"/>
        <phase duration="5"  state="r"/>
    </tlLogic>
    <tlLogic id="BC" type="static" programID="0" offset="0">
        <phase duration="79" state="G"/>
        <phase duration="6"  state="y"/>
        <phase duration="5"  state="r"/>
    </tlLogic>
    <tlLogic id="C" type="static" programID="0" offset="0">
        <phase duration="40" state="GGrrGGrr"/>
        <phase duration="5"  state="yyrryyrr"/>
        <phase duration="40" state="rrGGrrGG"/>
        <phase duration="5"  state="rryyrryy"/>
    </tlLogic>
    <tlLogic id="CA" type="static" programID="0" offset="0">
        <phase duration="80" state="G"/>
        <phase duration="5"  state="y"/>
        <phase duration="5"  state="r"/>
    </tlLogic>
    <tlLogic id="CB" type="static" programID="0" offset="0">
        <phase duration="80" state="G"/>
        <phase duration="5"  state="y"/>
        <phase duration="5"  state="r"/>
    </tlLogic>
    <tlLogic id="CC" type="static" programID="0" offset="0">
        <phase duration="80" state="G"/>
        <phase duration="5"  state="y"/>
        <phase duration="5"  state="r"/>
    </tlLogic>
    <tlLogic id="D" type="static" programID="0" offset="0">
        <phase duration="37" state="GGGgrrrrGGGgrrrr"/>
        <phase duration="8"  state="yyyyrrrryyyyrrrr"/>
        <phase duration="37" state="rrrrGGGgrrrrGGGg"/>
        <phase duration="8"  state="rrrryyyyrrrryyyy"/>
    </tlLogic>
    <tlLogic id="DA" type="static" programID="0" offset="0">
        <phase duration="77" state="G"/>
        <phase duration="8"  state="y"/>
        <phase duration="5"  state="r"/>
    </tlLogic>
    <tlLogic id="DB" type="static" programID="0" offset="0">
        <phase duration="77" state="G"/>
        <phase duration="8"  state="y"/>
        <phase duration="5"  state="r"/>
    </tlLogic>
    <tlLogic id="DC" type="static" programID="0" offset="0">
        <phase duration="77" state="G"/>
        <phase duration="8"  state="y"/>
        <phase duration="5"  state="r"/>
    </tlLogic>
    <tlLogic id="TL" type="static" programID="0" offset="0">
        <phase duration="30" state="GGGrsrGGGr"/>
        <phase duration="8"  state="yyyrsryyyr"/>
        <phase duration="6"  state="rrrGsrrrrG"/>
        <phase duration="8"  state="rrrysrrrry"/>
        <phase duration="30" state="srrrGGGrrr"/>
        <phase duration="8"  state="srrryyyrrr"/>
    </tlLogic>

    <junction id="A" type="dead_end" x="662.63" y="1440.98" z="5.13" incLanes="AB2A_0 AC2A_0 TL2A_0 AA2A_0" intLanes="" shape="659.43,1445.68,5.13 662.63,1445.68,5.13 663.16,1444.85,5.13 663.81,1444.56,5.13 664.72,1444.35,5.13 665.90,1444.22,5.13 667.33,1444.18,5.13 667.33,1440.98,5.13 666.50,1440.46,5.13 666.21,1439.81,5.13 666.00,1438.89,5.13 665.88,1437.72,5.13 665.83,1436.28,5.13 662.63,1436.28,5.13 662.11,1437.11,5.13 661.46,1437.41,5.13 660.55,1437.61,5.13 659.37,1437.74,5.13 657.93,1437.78,5.13 657.93,1440.98,5.13 658.77,1441.50,5.13 659.06,1442.16,5.13 659.27,1443.07,5.13 659.39,1444.24,5.13"/>
    <junction id="AA" type="dead_end" x="356.33" y="1440.98" z="5.13" incLanes="" intLanes="" shape="356.33,1440.98,5.13 356.33,1437.78,5.13"/>
    <junction id="AB" type="dead_end" x="662.63" y="1747.28" z="5.13" incLanes="" intLanes="" shape="662.63,1747.28,5.13 659.43,1747.28,5.13"/>
    <junction id="AC" type="dead_end" x="968.93" y="1440.98" z="5.13" incLanes="" intLanes="" shape="968.93,1440.98,5.13 968.93,1444.18,5.13"/>
    <junction id="B" type="traffic_light" x="833.52" y="1134.68" z="8.69" incLanes="BA2B_0 BA2B_1 BA2B_2 BB2B_0 BB2B_1 BB2B_2 BC2B_0 BC2B_1 BC2B_2 TL2B_0 TL2B_1 TL2B_2" intLanes=":B_0_0 :B_1_0 :B_1_1 :B_1_2 :B_20_0 :B_5_0 :B_6_0 :B_6_1 :B_6_2 :B_21_0 :B_10_0 :B_11_0 :B_11_1 :B_11_2 :B_22_0 :B_15_0 :B_16_0 :B_16_1 :B_16_2 :B_23_0" shape="823.92,1148.28,8.69 839.92,1148.28,8.69 840.72,1146.06,8.69 841.72,1145.28,8.69 843.12,1144.72,8.69 844.92,1144.39,8.69 847.12,1144.28,8.69 847.12,1128.28,8.69 844.89,1127.48,8.69 844.12,1126.48,8.69 843.56,1125.08,8.69 843.23,1123.28,8.69 843.12,1121.08,8.69 827.12,1121.08,8.69 826.32,1123.30,8.69 825.32,1124.08,8.69 823.92,1124.63,8.69 822.12,1124.97,8.69 819.92,1125.08,8.69 819.92,1141.08,8.69 822.14,1141.88,8.69 822.92,1142.88,8.69 823.47,1144.28,8.69 823.81,1146.08,8.69">
        <request index="0"  response="00000000000000000000" foes="00000000000111000000" cont="0"/>
        <request index="1"  response="10000000001000000000" foes="11111100001111000000" cont="0"/>
        <request index="2"  response="10000000001000001000" foes="11111100001111001000" cont="0"/>
        <request index="3"  response="10000000001000000000" foes="11111100001111000100" cont="0"/>
        <request index="4"  response="10000011101000000000" foes="11110011101111000000" cont="1"/>
        <request index="5"  response="00000011100000000000" foes="00000011100000000000" cont="0"/>