<?xml version="1.0" encoding="UTF-8"?>

<!-- generated on 2022-10-11 17:10:56 by Eclipse SUMO netconvert Version 1.14.1
<configuration xmlns:xsi="http://www.w3.org/2001/XMLSchema-instance" xsi:noNamespaceSchemaLocation="http://sumo.dlr.de/xsd/netconvertConfiguration.xsd">

    <input>
        <node-files value="../data/salt-lake-city/nodes.nod.xml"/>
        <edge-files value="../data/salt-lake-city/edges.edg.xml"/>
        <connection-files value="../data/salt-lake-city/connections.con.xml"/>
    </input>

    <output>
        <output-file value="../data/salt-lake-city/sumo/net/120.net.xml"/>
    </output>

    <tls_building>
        <tls.minor-left.max-speed value="1"/>
    </tls_building>

    <report>
        <verbose value="true"/>
    </report>

</configuration>
-->

<net version="1.9" junctionCornerDetail="5" limitTurnSpeed="5.50" xmlns:xsi="http://www.w3.org/2001/XMLSchema-instance" xsi:noNamespaceSchemaLocation="http://sumo.dlr.de/xsd/net_file.xsd">

    <location netOffset="354.78,259.71" convBoundary="0.00,0.00,709.57,969.27" origBoundary="-354.78,-259.71,354.78,709.57" projParameter="!"/>

    <edge id=":A_0" function="internal">
        <lane id=":A_0_0" index="0" speed="6.51" length="9.03" shape="353.18,621.69 352.83,619.24 351.78,617.49 350.03,616.44 347.58,616.09"/>
    </edge>
    <edge id=":A_1" function="internal">
        <lane id=":A_1_0" index="0" speed="40.00" length="14.40" shape="353.18,621.69 353.18,607.29"/>
    </edge>
    <edge id=":A_2" function="internal">
        <lane id=":A_2_0" index="0" speed="6.51" length="9.03" shape="361.98,616.09 359.53,616.44 357.78,617.49 356.73,619.24 356.38,621.69"/>
    </edge>
    <edge id=":A_3" function="internal">
        <lane id=":A_3_0" index="0" speed="40.00" length="14.40" shape="361.98,616.09 347.58,616.09"/>
    </edge>
    <edge id=":A_4" function="internal">
        <lane id=":A_4_0" index="0" speed="6.51" length="9.03" shape="356.38,607.29 356.73,609.74 357.78,611.49 359.53,612.54 361.98,612.89"/>
    </edge>
    <edge id=":A_5" function="internal">
        <lane id=":A_5_0" index="0" speed="40.00" length="14.40" shape="356.38,607.29 356.38,621.69"/>
    </edge>
    <edge id=":A_6" function="internal">
        <lane id=":A_6_0" index="0" speed="6.51" length="9.03" shape="347.58,612.89 350.03,612.54 351.78,611.49 352.83,609.74 353.18,607.29"/>
    </edge>
    <edge id=":A_7" function="internal">
        <lane id=":A_7_0" index="0" speed="40.00" length="14.40" shape="347.58,612.89 361.98,612.89"/>
    </edge>
    <edge id=":AA_0" function="internal">
        <lane id=":AA_0_0" index="0" speed="3.65" length="4.67" shape="-0.00,616.09 -1.20,615.29 -1.60,614.49 -1.20,613.69 -0.00,612.89"/>
    </edge>
    <edge id=":AB_0" function="internal">
        <lane id=":AB_0_0" index="0" speed="3.65" length="4.67" shape="356.38,969.27 355.58,970.47 354.78,970.87 353.98,970.47 353.18,969.27"/>
    </edge>
    <edge id=":AC_0" function="internal">
        <lane id=":AC_0_0" index="0" speed="3.65" length="4.67" shape="709.57,612.89 710.77,613.69 711.17,614.49 710.77,615.29 709.57,616.09"/>
    </edge>
    <edge id=":B_0" function="internal">
        <lane id=":B_0_0" index="0" speed="6.51" length="9.03" shape="521.65,171.68 520.12,169.74 518.33,168.75 516.29,168.71 514.00,169.63"/>
    </edge>
    <edge id=":B_1" function="internal">
        <lane id=":B_1_0" index="0" speed="40.00" length="14.40" shape="521.65,171.68 514.45,159.21"/>
    </edge>
    <edge id=":B_2" function="internal">
        <lane id=":B_2_0" index="0" speed="6.51" length="9.03" shape="526.47,162.43 524.52,163.96 523.53,165.75 523.49,167.79 524.42,170.08"/>
    </edge>
    <edge id=":B_3" function="internal">
        <lane id=":B_3_0" index="0" speed="40.00" length="14.40" shape="526.47,162.43 514.00,169.63"/>
    </edge>
    <edge id=":B_4" function="internal">
        <lane id=":B_4_0" index="0" speed="6.51" length="9.03" shape="517.22,157.61 518.74,159.56 520.53,160.55 522.57,160.58 524.87,159.66"/>
    </edge>
    <edge id=":B_5" function="internal">
        <lane id=":B_5_0" index="0" speed="40.00" length="14.40" shape="517.22,157.61 524.42,170.08"/>
    </edge>
    <edge id=":B_6" function="internal">
        <lane id=":B_6_0" index="0" speed="6.51" length="9.03" shape="512.40,166.86 514.34,165.33 515.33,163.55 515.37,161.51 514.45,159.21"/>
    </edge>
    <edge id=":B_7" function="internal">
        <lane id=":B_7_0" index="0" speed="40.00" length="14.40" shape="512.40,166.86 524.87,159.66"/>
    </edge>
    <edge id=":BA_0" function="internal">
        <lane id=":BA_0_0" index="0" speed="3.65" length="4.67" shape="615.88,328.49 615.78,329.93 615.29,330.68 614.40,330.73 613.10,330.09"/>
    </edge>
    <edge id=":BB_0" function="internal">
        <lane id=":BB_0_0" index="0" speed="3.65" length="4.67" shape="683.28,68.20 684.72,68.30 685.46,68.79 685.52,69.68 684.88,70.97"/>
    </edge>
    <edge id=":BC_0" function="internal">
        <lane id=":BC_0_0" index="0" speed="3.65" length="4.67" shape="422.99,0.80 423.08,-0.64 423.57,-1.39 424.46,-1.44 425.76,-0.80"/>
    </edge>
    <edge id=":C_0" function="internal">
        <lane id=":C_0_0" index="0" speed="6.51" length="9.03" shape="207.62,176.59 205.32,175.67 203.28,175.70 201.50,176.69 199.97,178.64"/>
    </edge>
    <edge id=":C_1" function="internal">
        <lane id=":C_1_0" index="0" speed="40.00" length="14.40" shape="207.62,176.59 195.15,169.39"/>
    </edge>
    <edge id=":C_2" function="internal">
        <lane id=":C_2_0" index="0" speed="6.51" length="9.03" shape="207.17,166.17 206.25,168.46 206.28,170.51 207.27,172.29 209.22,173.82"/>
    </edge>
    <edge id=":C_3" function="internal">
        <lane id=":C_3_0" index="0" speed="40.00" length="14.40" shape="207.17,166.17 199.97,178.64"/>
    </edge>
    <edge id=":C_4" function="internal">
        <lane id=":C_4_0" index="0" speed="6.51" length="9.03" shape="196.75,166.62 199.05,167.54 201.09,167.51 202.87,166.51 204.40,164.57"/>
    </edge>
    <edge id=":C_5" function="internal">
        <lane id=":C_5_0" index="0" speed="40.00" length="14.40" shape="196.75,166.62 209.22,173.82"/>
    </edge>
    <edge id=":C_6" function="internal">
        <lane id=":C_6_0" index="0" speed="6.51" length="9.03" shape="197.20,177.04 198.12,174.74 198.09,172.70 197.10,170.92 195.15,169.39"/>
    </edge>
    <edge id=":C_7" function="internal">
        <lane id=":C_7_0" index="0" speed="40.00" length="14.40" shape="197.20,177.04 204.40,164.57"/>
    </edge>
    <edge id=":CA_0" function="internal">
        <lane id=":CA_0_0" index="0" speed="3.65" length="4.67" shape="288.90,18.20 290.20,17.57 291.09,17.62 291.58,18.37 291.67,19.80"/>
    </edge>
    <edge id=":CB_0" function="internal">
        <lane id=":CB_0_0" index="0" speed="3.65" length="4.67" shape="48.79,84.89 48.15,83.59 48.20,82.70 48.95,82.21 50.39,82.11"/>
    </edge>
    <edge id=":CC_0" function="internal">
        <lane id=":CC_0_0" index="0" speed="3.65" length="4.67" shape="115.47,325.00 114.18,325.64 113.28,325.59 112.79,324.84 112.70,323.40"/>
    </edge>
    <edge id=":TL_0" function="internal">
        <lane id=":TL_0_0" index="0" speed="6.75" length="5.88" shape="353.18,263.86 353.01,262.35 352.48,261.03 351.61,259.92 350.38,259.01"/>
    </edge>
    <edge id=":TL_1" function="internal">
        <lane id=":TL_1_0" index="0" speed="8.31" length="9.24" shape="353.18,263.86 353.46,261.48 354.28,259.42 355.66,257.67 357.58,256.24"/>
    </edge>
    <edge id=":TL_2" function="internal">
        <lane id=":TL_2_0" index="0" speed="6.75" length="5.88" shape="359.18,259.01 357.96,259.92 357.08,261.03 356.56,262.35 356.38,263.86"/>
    </edge>
    <edge id=":TL_3" function="internal">
        <lane id=":TL_3_0" index="0" speed="6.75" length="5.88" shape="351.98,256.24 353.38,256.85 354.78,257.05 356.18,256.85 357.58,256.24"/>
    </edge>
    <edge id=":TL_4" function="internal">
        <lane id=":TL_4_0" index="0" speed="8.31" length="9.24" shape="351.98,256.24 353.91,257.67 355.28,259.42 356.11,261.48 356.38,263.86"/>
    </edge>

    <edge id="A2AA" from="A" to="AA" priority="-1">
        <lane id="A2AA_0" index="0" speed="40.00" length="347.58" shape="347.58,616.09 -0.00,616.09"/>
    </edge>
    <edge id="A2AB" from="A" to="AB" priority="-1">
        <lane id="A2AB_0" index="0" speed="40.00" length="347.58" shape="356.38,621.69 356.38,969.27"/>
    </edge>
    <edge id="A2AC" from="A" to="AC" priority="-1">
        <lane id="A2AC_0" index="0" speed="40.00" length="347.58" shape="361.98,612.89 709.57,612.89"/>
    </edge>
    <edge id="A2TL" from="A" to="TL" priority="-1">
        <lane id="A2TL_0" index="0" speed="40.00" length="343.43" shape="353.18,607.29 353.18,263.86"/>
    </edge>
    <edge id="AA2A" from="AA" to="A" priority="-1">
        <lane id="AA2A_0" index="0" speed="40.00" length="347.58" shape="-0.00,612.89 347.58,612.89"/>
    </edge>
    <edge id="AB2A" from="AB" to="A" priority="-1">
        <lane id="AB2A_0" index="0" speed="40.00" length="347.58" shape="353.18,969.27 353.18,621.69"/>
    </edge>
    <edge id="AC2A" from="AC" to="A" priority="-1">
        <lane id="AC2A_0" index="0" speed="40.00" length="347.58" shape="709.57,616.09 361.98,616.09"/>
    </edge>
    <edge id="B2BA" from="B" to="BA" priority="-1">
        <lane id="B2BA_0" index="0" speed="40.00" length="182.92" shape="524.42,170.08 615.88,328.49"/>
    </edge>
    <edge id="B2BB" from="B" to="BB" priority="-1">
        <lane id="B2BB_0" index="0" speed="40.00" length="182.92" shape="524.87,159.66 683.28,68.20"/>
    </edge>
    <edge id="B2BC" from="B" to="BC" priority="-1">
        <lane id="B2BC_0" index="0" speed="40.00" length="182.92" shape="514.45,159.21 422.99,0.80"/>
    </edge>
    <edge id="B2TL" from="B" to="TL" priority="-1">
        <lane id="B2TL_0" index="0" speed="40.00" length="178.76" shape="514.00,169.63 359.18,259.01"/>
    </edge>
    <edge id="BA2B" from="BA" to="B" priority="-1">
        <lane id="BA2B_0" index="0" speed="40.00" length="182.92" shape="613.10,330.09 521.65,171.68"/>
    </edge>
    <edge id="BB2B" from="BB" to="B" priority="-1">
        <lane id="BB2B_0" index="0" speed="40.00" length="182.92" shape="684.88,70.97 526.47,162.43"/>
    </edge>
    <edge id="BC2B" from="BC" to="B" priority="-1">
        <lane id="BC2B_0" index="0" speed="40.00" length="182.92" shape="425.76,-0.80 517.22,157.61"/>
    </edge>
    <edge id="C2CA" from="C" to="CA" priority="-1">
        <lane id="C2CA_0" index="0" speed="40.00" length="169.01" shape="204.40,164.57 288.90,18.20"/>
    </edge>
    <edge id="C2CB" from="C" to="CB" priority="-1">
        <lane id="C2CB_0" index="0" speed="40.00" length="169.01" shape="195.15,169.39 48.79,84.89"/>
    </edge>
    <edge id="C2CC" from="C" to="CC" priority="-1">
        <lane id="C2CC_0" index="0" speed="40.00" length="169.01" shape="199.97,178.64 115.47,325.00"/>
    </edge>
    <edge id="C2TL" from="C" to="TL" priority="-1">
        <lane id="C2TL_0" index="0" speed="40.00" length="164.85" shape="209.22,173.82 351.98,256.24"/>
    </edge>
    <edge id="CA2C" from="CA" to="C" priority="-1">
        <lane id="CA2C_0" index="0" speed="40.00" length="169.01" shape="291.67,19.80 207.17,166.17"/>
    </edge>
    <edge id="CB2C" from="CB" to="C" priority="-1">
        <lane id="CB2C_0" index="0" speed="40.00" length="169.01" shape="50.39,82.11 196.75,166.62"/>
    </edge>
    <edge id="CC2C" from="CC" to="C" priority="-1">
        <lane id="CC2C_0" index="0" speed="40.00" length="169.01" shape="112.70,323.40 197.20,177.04"/>
    </edge>
    <edge id="TL2A" from="TL" to="A" priority="-1">
        <lane id="TL2A_0" index="0" speed="40.00" length="343.43" shape="356.38,263.86 356.38,607.29"/>
    </edge>
    <edge id="TL2B" from="TL" to="B" priority="-1">
        <lane id="TL2B_0" index="0" speed="40.00" length="178.76" shape="357.58,256.24 512.40,166.86"/>
    </edge>
    <edge id="TL2C" from="TL" to="C" priority="-1">
        <lane id="TL2C_0" index="0" speed="40.00" length="164.85" shape="350.38,259.01 207.62,176.59"/>
    </edge>

    <tlLogic id="A" type="static" programID="0" offset="0">
        <phase duration="37" state="GGrrGGrr"/>
        <phase duration="8"  state="yyrryyrr"/>
        <phase duration="37" state="rrGGrrGG"/>
        <phase duration="8"  state="rryyrryy"/>
    </tlLogic>
    <tlLogic id="AA" type="static" programID="0" offset="0">
        <phase duration="77" state="G"/>
        <phase duration="8"  state="y"/>
        <phase duration="5"  state="r"/>
    </tlLogic>
    <tlLogic id="AB" type="static" programID="0" offset="0">
        <phase duration="77" state="G"/>
        <phase duration="8"  state="y"/>
        <phase duration="5"  state="r"/>
    </tlLogic>
    <tlLogic id="AC" type="static" programID="0" offset="0">
        <phase duration="77" state="G"/>
        <phase duration="8"  state="y"/>
        <phase duration="5"  state="r"/>
    </tlLogic>
    <tlLogic id="B" type="static" programID="0" offset="0">
        <phase duration="37" state="rrGGrrGG"/>
        <phase duration="8"  state="rryyrryy"/>
        <phase duration="37" state="GGrrGGrr"/>
        <phase duration="8"  state="yyrryyrr"/>
    </tlLogic>
    <tlLogic id="BA" type="static" programID="0" offset="0">
        <phase duration="77" state="G"/>
        <phase duration="8"  state="y"/>
        <phase duration="5"  state="r"/>
    </tlLogic>
    <tlLogic id="BB" type="static" programID="0" offset="0">
        <phase duration="77" state="G"/>
        <phase duration="8"  state="y"/>
        <phase duration="5"  state="r"/>
    </tlLogic>
    <tlLogic id="BC" type="static" programID="0" offset="0">
        <phase duration="77" state="G"/>
        <phase duration="8"  state="y"/>
        <phase duration="5"  state="r"/>
    </tlLogic>
    <tlLogic id="C" type="static" programID="0" offset="0">
        <phase duration="37" state="GGrrGGrr"/>
        <phase duration="8"  state="yyrryyrr"/>
        <phase duration="37" state="rrGGrrGG"/>
        <phase duration="8"  state="rryyrryy"/>
    </tlLogic>
    <tlLogic id="CA" type="static" programID="0" offset="0">
        <phase duration="77" state="G"/>
        <phase duration="8"  state="y"/>
        <phase duration="5"  state="r"/>
    </tlLogic>
    <tlLogic id="CB" type="static" programID="0" offset="0">
        <phase duration="77" state="G"/>
        <phase duration="8"  state="y"/>
        <phase duration="5"  state="r"/>
    </tlLogic>
    <tlLogic id="CC" type="static" programID="0" offset="0">
        <phase duration="77" state="G"/>
        <phase duration="8"  state="y"/>
        <phase duration="5"  state="r"/>
    </tlLogic>
    <tlLogic id="TL" type="static" programID="0" offset="0">
        <phase duration="37" state="GGGrr"/>
        <phase duration="8"  state="yyyrr"/>
        <phase duration="37" state="GrrGG"/>
        <phase duration="8"  state="yrryy"/>
    </tlLogic>

    <junction id="A" type="traffic_light" x="354.78" y="614.49" incLanes="AB2A_0 AC2A_0 TL2A_0 AA2A_0" intLanes=":A_0_0 :A_1_0 :A_2_0 :A_3_0 :A_4_0 :A_5_0 :A_6_0 :A_7_0" shape="351.58,621.69 357.98,621.69 358.43,619.47 358.98,618.69 359.76,618.13 360.76,617.80 361.98,617.69 361.98,611.29 359.76,610.85 358.98,610.29 358.43,609.51 358.10,608.51 357.98,607.29 351.58,607.29 351.14,609.51 350.58,610.29 349.81,610.85 348.81,611.18 347.58,611.29 347.58,617.69 349.81,618.13 350.58,618.69 351.14,619.47 351.47,620.47">
        <request index="0" response="00000000" foes="00001000" cont="0"/>
        <request index="1" response="00000000" foes="11001000" cont="0"/>
        <request index="2" response="00100000" foes="00100000" cont="0"/>
        <request index="3" response="00100011" foes="00100011" cont="0"/>
        <request index="4" response="00000000" foes="10000000" cont="0"/>
        <request index="5" response="00000000" foes="10001100" cont="0"/>
        <request index="6" response="00000010" foes="00000010" cont="0"/>
        <request index="7" response="00110010" foes="00110010" cont="0"/>
    </junction>
    <junction id="AA" type="traffic_light" x="0.00" y="614.49" incLanes="A2AA_0" intLanes=":AA_0_0" shape="-0.00,614.49 -0.00,617.69 -0.00,614.49">
        <request index="0" response="0" foes="0" cont="0"/>
    </junction>
    <junction id="AB" type="traffic_light" x="354.78" y="969.27" incLanes="A2AB_0" intLanes=":AB_0_0" shape="354.78,969.27 357.98,969.27 354.78,969.27">
        <request index="0" response="0" foes="0" cont="0"/>
    </junction>
    <junction id="AC" type="traffic_light" x="709.57" y="614.49" incLanes="A2AC_0" intLanes=":AC_0_0" shape="709.57,614.49 709.57,611.29 709.57,614.49">
        <request index="0" response="0" foes="0" cont="0"/>
    </junction>
    <junction id="B" type="traffic_light" x="519.43" y="164.65" incLanes="BA2B_0 BB2B_0 BC2B_0 TL2B_0" intLanes=":B_0_0 :B_1_0 :B_2_0 :B_3_0 :B_4_0 :B_5_0 :B_6_0 :B_7_0" shape="520.26,172.48 525.80,169.28 525.08,167.14 525.17,166.18 525.56,165.31 526.26,164.53 527.27,163.82 524.07,158.28 521.92,159.00 520.97,158.91 520.10,158.51 519.31,157.81 518.60,156.81 513.06,160.01 513.79,162.16 513.69,163.11 513.30,163.98 512.60,164.77 511.60,165.48 514.80,171.02 516.94,170.29 517.89,170.38 518.76,170.78 519.55,171.48">
        <request index="0" response="00001000" foes="00001000" cont="0"/>
        <request index="1" response="11001000" foes="11001000" cont="0"/>
        <request index="2" response="00000000" foes="00100000" cont="0"/>
        <request index="3" response="00000000" foes="00100011" cont="0"/>
        <request index="4" response="10000000" foes="10000000" cont="0"/>
        <request index="5" response="10001100" foes="10001100" cont="0"/>
        <request index="6" response="00000000" foes="00000010" cont="0"/>
        <request index="7" response="00000000" foes="00110010" cont="0"/>
    </junction>
    <junction id="BA" type="traffic_light" x="614.49" y="329.29" incLanes="B2BA_0" intLanes=":BA_0_0" shape="614.49,329.29 617.26,327.69 614.49,329.29">
        <request index="0" response="0" foes="0" cont="0"/>
    </junction>
    <junction id="BB" type="traffic_light" x="684.08" y="69.59" incLanes="B2BB_0" intLanes=":BB_0_0" shape="684.08,69.59 682.48,66.82 684.08,69.59">
        <request index="0" response="0" foes="0" cont="0"/>
    </junction>
    <junction id="BC" type="traffic_light" x="424.37" y="0.00" incLanes="B2BC_0" intLanes=":BC_0_0" shape="424.37,0.00 421.60,1.60 424.37,0.00">
        <request index="0" response="0" foes="0" cont="0"/>
    </junction>
    <junction id="C" type="traffic_light" x="202.19" y="171.60" incLanes="TL2C_0 CA2C_0 CB2C_0 CC2C_0" intLanes=":C_0_0 :C_1_0 :C_2_0 :C_3_0 :C_4_0 :C_5_0 :C_6_0 :C_7_0" shape="206.82,177.97 210.02,172.43 208.32,170.94 207.92,170.07 207.83,169.11 208.04,168.08 208.56,166.97 203.01,163.77 201.52,165.47 200.65,165.87 199.70,165.96 198.66,165.75 197.55,165.23 194.35,170.77 196.05,172.27 196.45,173.14 196.54,174.09 196.33,175.12 195.81,176.24 201.36,179.44 202.85,177.74 203.72,177.34 204.67,177.25 205.71,177.46">
        <request index="0" response="00000000" foes="00001000" cont="0"/>
        <request index="1" response="00000000" foes="11001000" cont="0"/>
        <request index="2" response="00100000" foes="00100000" cont="0"/>
        <request index="3" response="00100011" foes="00100011" cont="0"/>
        <request index="4" response="00000000" foes="10000000" cont="0"/>
        <request index="5" response="00000000" foes="10001100" cont="0"/>
        <request index="6" response="00000010" foes="00000010" cont="0"/>
        <request index="7" response="00110010" foes="00110010" cont="0"/>
    </junction>
    <junction id="CA" type="traffic_light" x="290.29" y="19.00" incLanes="C2CA_0" intLanes=":CA_0_0" shape="290.29,19.00 287.52,17.40 290.29,19.00">
        <request index="0" response="0" foes="0" cont="0"/>
    </junction>
    <junction id="CB" type="traffic_light" x="49.59" y="83.50" incLanes="C2CB_0" intLanes=":CB_0_0" shape="49.59,83.50 47.99,86.27 49.59,83.50">
        <request index="0" response="0" foes="0" cont="0"/>
    </junction>
    <junction id="CC" type="traffic_light" x="114.08" y="324.20" incLanes="C2CC_0" intLanes=":CC_0_0" shape="114.08,324.20 116.85,325.80 114.08,324.20">
        <request index="0" response="0" foes="0" cont="0"/>
    </junction>
    <junction id="TL" type="traffic_light_right_on_red" x="354.78" y="259.71" incLanes="A2TL_0 B2TL_0 C2TL_0" intLanes=":TL_0_0 :TL_1_0 :TL_2_0 :TL_3_0 :TL_4_0" shape="351.58,263.86 357.98,263.86 358.21,262.45 358.48,261.84 358.87,261.30 359.37,260.82 359.98,260.40 356.78,254.86 355.45,255.37 354.78,255.43 354.12,255.37 353.45,255.18 352.78,254.86 349.58,260.40 350.70,261.30 351.08,261.84 351.36,262.45 351.53,263.13">
        <request index="0" response="00000" foes="00000" cont="0"/>
        <request index="1" response="00000" foes="11000" cont="0"/>
        <request index="2" response="00000" foes="10000" cont="0"/>
        <request index="3" response="00010" foes="00010" cont="0"/>
        <request index="4" response="00110" foes="00110" cont="0"/>
    </junction>

    <connection from="A2AA" to="AA2A" fromLane="0" toLane="0" via=":AA_0_0" tl="AA" linkIndex="0" dir="t" state="O"/>
    <connection from="A2AB" to="AB2A" fromLane="0" toLane="0" via=":AB_0_0" tl="AB" linkIndex="0" dir="t" state="O"/>
    <connection from="A2AC" to="AC2A" fromLane="0" toLane="0" via=":AC_0_0" tl="AC" linkIndex="0" dir="t" state="O"/>
    <connection from="A2TL" to="TL2C" fromLane="0" toLane="0" via=":TL_0_0" tl="TL" linkIndex="0" dir="r" state="O"/>
    <connection from="A2TL" to="TL2B" fromLane="0" toLane="0" via=":TL_1_0" tl="TL" linkIndex="1" dir="l" state="O"/>
    <connection from="AA2A" to="A2TL" fromLane="0" toLane="0" via=":A_6_0" tl="A" linkIndex="6" dir="r" state="o"/>
    <connection from="AA2A" to="A2AC" fromLane="0" toLane="0" via=":A_7_0" tl="A" linkIndex="7" dir="s" state="o"/>
    <connection from="AB2A" to="A2AA" fromLane="0" toLane="0" via=":A_0_0" tl="A" linkIndex="0" dir="r" state="O"/>
    <connection from="AB2A" to="A2TL" fromLane="0" toLane="0" via=":A_1_0" tl="A" linkIndex="1" dir="s" state="O"/>
    <connection from="AC2A" to="A2AB" fromLane="0" toLane="0" via=":A_2_0" tl="A" linkIndex="2" dir="r" state="o"/>
    <connection from="AC2A" to="A2AA" fromLane="0" toLane="0" via=":A_3_0" tl="A" linkIndex="3" dir="s" state="o"/>
    <connection from="B2BA" to="BA2B" fromLane="0" toLane="0" via=":BA_0_0" tl="BA" linkIndex="0" dir="t" state="O"/>
    <connection from="B2BB" to="BB2B" fromLane="0" toLane="0" via=":BB_0_0" tl="BB" linkIndex="0" dir="t" state="O"/>
    <connection from="B2BC" to="BC2B" fromLane="0" toLane="0" via=":BC_0_0" tl="BC" linkIndex="0" dir="t" state="O"/>
    <connection from="B2TL" to="TL2A" fromLane="0" toLane="0" via=":TL_2_0" tl="TL" linkIndex="2" dir="r" state="O"/>
    <connection from="BA2B" to="B2TL" fromLane="0" toLane="0" via=":B_0_0" tl="B" linkIndex="0" dir="r" state="o"/>
    <connection from="BA2B" to="B2BC" fromLane="0" toLane="0" via=":B_1_0" tl="B" linkIndex="1" dir="s" state="o"/>
    <connection from="BB2B" to="B2BA" fromLane="0" toLane="0" via=":B_2_0" tl="B" linkIndex="2" dir="r" state="O"/>
    <connection from="BB2B" to="B2TL" fromLane="0" toLane="0" via=":B_3_0" tl="B" linkIndex="3" dir="s" state="O"/>
    <connection from="BC2B" to="B2BB" fromLane="0" toLane="0" via=":B_4_0" tl="B" linkIndex="4" dir="r" state="o"/>
    <connection from="BC2B" to="B2BA" fromLane="0" toLane="0" via=":B_5_0" tl="B" linkIndex="5" dir="s" state="o"/>
    <connection from="C2CA" to="CA2C" fromLane="0" toLane="0" via=":CA_0_0" tl="CA" linkIndex="0" dir="t" state="O"/>
    <connection from="C2CB" to="CB2C" fromLane="0" toLane="0" via=":CB_0_0" tl="CB" linkIndex="0" dir="t" state="O"/>
    <connection from="C2CC" to="CC2C" fromLane="0" toLane="0" via=":CC_0_0" tl="CC" linkIndex="0" dir="t" state="O"/>
    <connection from="C2TL" to="TL2B" fromLane="0" toLane="0" via=":TL_3_0" tl="TL" linkIndex="3" dir="r" state="o"/>
    <connection from="C2TL" to="TL2A" fromLane="0" toLane="0" via=":TL_4_0" tl="TL" linkIndex="4" dir="l" state="o"/>
    <connection from="CA2C" to="C2TL" fromLane="0" toLane="0" via=":C_2_0" tl="C" linkIndex="2" dir="r" state="o"/>
    <connection from="CA2C" to="C2CC" fromLane="0" toLane="0" via=":C_3_0" tl="C" linkIndex="3" dir="s" state="o"/>
    <connection from="CB2C" to="C2CA" fromLane="0" toLane="0" via=":C_4_0" tl="C" linkIndex="4" dir="r" state="O"/>
    <connection from="CB2C" to="C2TL" fromLane="0" toLane="0" via=":C_5_0" tl="C" linkIndex="5" dir="s" state="O"/>
    <connection from="CC2C" to="C2CB" fromLane="0" toLane="0" via=":C_6_0" tl="C" linkIndex="6" dir="r" state="o"/>
    <connection from="CC2C" to="C2CA" fromLane="0" toLane="0" via=":C_7_0" tl="C" linkIndex="7" dir="s" state="o"/>
    <connection from="TL2A" to="A2AC" fromLane="0" toLane="0" via=":A_4_0" tl="A" linkIndex="4" dir="r" state="O"/>
    <connection from="TL2A" to="A2AB" fromLane="0" toLane="0" via=":A_5_0" tl="A" linkIndex="5" dir="s" state="O"/>
    <connection from="TL2B" to="B2BC" fromLane="0" toLane="0" via=":B_6_0" tl="B" linkIndex="6" dir="r" state="O"/>
    <connection from="TL2B" to="B2BB" fromLane="0" toLane="0" via=":B_7_0" tl="B" linkIndex="7" dir="s" state="O"/>
    <connection from="TL2C" to="C2CC" fromLane="0" toLane="0" via=":C_0_0" tl="C" linkIndex="0" dir="r" state="O"/>
    <connection from="TL2C" to="C2CB" fromLane="0" toLane="0" via=":C_1_0" tl="C" linkIndex="1" dir="s" state="O"/>

    <connection from=":A_0" to="A2AA" fromLane="0" toLane="0" dir="r" state="M"/>
    <connection from=":A_1" to="A2TL" fromLane="0" toLane="0" dir="s" state="M"/>
    <connection from=":A_2" to="A2AB" fromLane="0" toLane="0" dir="r" state="M"/>
    <connection from=":A_3" to="A2AA" fromLane="0" toLane="0" dir="s" state="M"/>
    <connection from=":A_4" to="A2AC" fromLane="0" toLane="0" dir="r" state="M"/>
    <connection from=":A_5" to="A2AB" fromLane="0" toLane="0" dir="s" state="M"/>
    <connection from=":A_6" to="A2TL" fromLane="0" toLane="0" dir="r" state="M"/>
    <connection from=":A_7" to="A2AC" fromLane="0" toLane="0" dir="s" state="M"/>
    <connection from=":AA_0" to="AA2A" fromLane="0" toLane="0" dir="t" state="M"/>
    <connection from=":AB_0" to="AB2A" fromLane="0" toLane="0" dir="t" state="M"/>
    <connection from=":AC_0" to="AC2A" fromLane="0" toLane="0" dir="t" state="M"/>
    <connection from=":B_0" to="B2TL" fromLane="0" toLane="0" dir="r" state="M"/>
    <connection from=":B_1" to="B2BC" fromLane="0" toLane="0" dir="s" state="M"/>
    <connection from=":B_2" to="B2BA" fromLane="0" toLane="0" dir="r" state="M"/>
    <connection from=":B_3" to="B2TL" fromLane="0" toLane="0" dir="s" state="M"/>
    <connection from=":B_4" to="B2BB" fromLane="0" toLane="0" dir="r" state="M"/>
    <connection from=":B_5" to="B2BA" fromLane="0" toLane="0" dir="s" state="M"/>
    <connection from=":B_6" to="B2BC" fromLane="0" toLane="0" dir="r" state="M"/>
    <connection from=":B_7" to="B2BB" fromLane="0" toLane="0" dir="s" state="M"/>
    <connection from=":BA_0" to="BA2B" fromLane="0" toLane="0" dir="t" state="M"/>
    <connection from=":BB_0" to="BB2B" fromLane="0" toLane="0" dir="t" state="M"/>
    <connection from=":BC_0" to="BC2B" fromLane="0" toLane="0" dir="t" state="M"/>
    <connection from=":C_0" to="C2CC" fromLane="0" toLane="0" dir="r" state="M"/>
    <connection from=":C_1" to="C2CB" fromLane="0" toLane="0" dir="s" state="M"/>
    <connection from=":C_2" to="C2TL" fromLane="0" toLane="0" dir="r" state="M"/>
    <connection from=":C_3" to="C2CC" fromLane="0" toLane="0" dir="s" state="M"/>
    <connection from=":C_4" to="C2CA" fromLane="0" toLane="0" dir="r" state="M"/>
    <connection from=":C_5" to="C2TL" fromLane="0" toLane="0" dir="s" state="M"/>
    <connection from=":C_6" to="C2CB" fromLane="0" toLane="0" dir="r" state="M"/>
    <connection from=":C_7" to="C2CA" fromLane="0" toLane="0" dir="s" state="M"/>
    <connection from=":CA_0" to="CA2C" fromLane="0" toLane="0" dir="t" state="M"/>
    <connection from=":CB_0" to="CB2C" fromLane="0" toLane="0" dir="t" state="M"/>
    <connection from=":CC_0" to="CC2C" fromLane="0" toLane="0" dir="t" state="M"/>
    <connection from=":TL_0" to="TL2C" fromLane="0" toLane="0" dir="r" state="M"/>
    <connection from=":TL_1" to="TL2B" fromLane="0" toLane="0" dir="l" state="M"/>
    <connection from=":TL_2" to="TL2A" fromLane="0" toLane="0" dir="r" state="M"/>
    <connection from=":TL_3" to="TL2B" fromLane="0" toLane="0" dir="r" state="M"/>
    <connection from=":TL_4" to="TL2A" fromLane="0" toLane="0" dir="l" state="M"/>

</net>
