<?xml version="1.0" encoding="UTF-8"?>

<!-- generated on 2022-10-11 16:45:12 by Eclipse SUMO netconvert Version 1.14.1
<configuration xmlns:xsi="http://www.w3.org/2001/XMLSchema-instance" xsi:noNamespaceSchemaLocation="http://sumo.dlr.de/xsd/netconvertConfiguration.xsd">

    <input>
        <node-files value="../data/salt-lake-city/nodes.nod.xml"/>
        <edge-files value="../data/salt-lake-city/edges.edg.xml"/>
        <connection-files value="../data/salt-lake-city/connections.con.xml"/>
    </input>

    <output>
        <output-file value="../data/salt-lake-city/sumo/net/126.net.xml"/>
    </output>

    <tls_building>
        <tls.minor-left.max-speed value="1"/>
    </tls_building>

    <report>
        <verbose value="true"/>
    </report>

</configuration>
-->

<net version="1.9" junctionCornerDetail="5" limitTurnSpeed="5.50" xmlns:xsi="http://www.w3.org/2001/XMLSchema-instance" xsi:noNamespaceSchemaLocation="http://sumo.dlr.de/xsd/net_file.xsd">

    <location netOffset="615.20,646.96" convBoundary="0.00,0.00,1255.50,1269.71" origBoundary="-615.20,-646.96,640.31,622.74" projParameter="!"/>

    <edge id=":A_0" function="internal">
        <lane id=":A_0_0" index="0" speed="7.33" length="11.73" shape="604.00,975.13,-4.93 603.65,971.28,-4.93 602.60,968.53,-4.93 600.85,966.88,-4.93 598.40,966.33,-4.93"/>
    </edge>
    <edge id=":A_1" function="internal">
        <lane id=":A_1_0" index="0" speed="25.00" length="33.75" shape="604.00,975.13,-4.93 604.50,964.87,-4.93 605.60,957.63,-4.93 606.70,950.74,-4.93 607.20,941.53,-4.93"/>
        <lane id=":A_1_1" index="1" speed="25.00" length="33.75" shape="607.20,975.13,-4.93 607.70,964.87,-4.93 608.80,957.63,-4.93 609.90,950.74,-4.93 610.40,941.53,-4.93"/>
        <lane id=":A_1_2" index="2" speed="25.00" length="33.75" shape="610.40,975.13,-4.93 610.90,964.87,-4.93 612.00,957.63,-4.93 613.10,950.74,-4.93 613.60,941.53,-4.93"/>
        <lane id=":A_1_3" index="3" speed="25.00" length="33.75" shape="613.60,975.13,-4.93 613.60,941.53,-4.93"/>
    </edge>
    <edge id=":A_5" function="internal">
        <lane id=":A_5_0" index="0" speed="11.36" length="5.01" shape="613.60,975.13,-4.93 614.31,970.17,-4.93"/>
    </edge>
    <edge id=":A_24" function="internal">
        <lane id=":A_24_0" index="0" speed="11.36" length="24.66" shape="614.31,970.17,-4.93 614.75,967.08,-4.93 618.20,961.33,-4.93 623.95,957.88,-4.93 632.00,956.73,-4.93"/>
    </edge>
    <edge id=":A_6" function="internal">
        <lane id=":A_6_0" index="0" speed="7.33" length="11.73" shape="632.00,969.53,-4.93 628.15,969.88,-4.93 625.40,970.93,-4.93 623.75,972.68,-4.93 623.20,975.13,-4.93"/>
    </edge>
    <edge id=":A_7" function="internal">
        <lane id=":A_7_0" index="0" speed="25.00" length="33.75" shape="632.00,969.53,-4.93 621.74,969.03,-4.93 614.49,967.93,-4.93 607.60,966.83,-4.93 598.40,966.33,-4.93"/>
        <lane id=":A_7_1" index="1" speed="25.00" length="33.75" shape="632.00,966.33,-4.93 621.74,965.83,-4.93 614.49,964.73,-4.93 607.60,963.63,-4.93 598.40,963.13,-4.93"/>
        <lane id=":A_7_2" index="2" speed="25.00" length="33.75" shape="632.00,963.13,-4.93 621.74,962.63,-4.93 614.49,961.53,-4.93 607.60,960.43,-4.93 598.40,959.93,-4.93"/>
        <lane id=":A_7_3" index="3" speed="25.00" length="33.75" shape="632.00,959.93,-4.93 598.40,959.93,-4.93"/>
    </edge>
    <edge id=":A_11" function="internal">
        <lane id=":A_11_0" index="0" speed="11.36" length="5.01" shape="632.00,959.93,-4.93 627.03,959.23,-4.93"/>
    </edge>
    <edge id=":A_25" function="internal">
        <lane id=":A_25_0" index="0" speed="11.36" length="24.66" shape="627.03,959.23,-4.93 623.95,958.78,-4.93 618.20,955.33,-4.93 614.75,949.58,-4.93 613.60,941.53,-4.93"/>
    </edge>
    <edge id=":A_12" function="internal">
        <lane id=":A_12_0" index="0" speed="7.33" length="11.73" shape="626.40,941.53,-4.93 626.75,945.38,-4.93 627.80,948.13,-4.93 629.55,949.78,-4.93 632.00,950.33,-4.93"/>
    </edge>
    <edge id=":A_13" function="internal">
        <lane id=":A_13_0" index="0" speed="25.00" length="33.75" shape="626.40,941.53,-4.93 625.90,951.79,-4.93 624.80,959.04,-4.93 623.70,965.93,-4.93 623.20,975.13,-4.93"/>
        <lane id=":A_13_1" index="1" speed="25.00" length="33.75" shape="623.20,941.53,-4.93 622.70,951.79,-4.93 621.60,959.04,-4.93 620.50,965.93,-4.93 620.00,975.13,-4.93"/>
        <lane id=":A_13_2" index="2" speed="25.00" length="33.75" shape="620.00,941.53,-4.93 619.50,951.79,-4.93 618.40,959.04,-4.93 617.30,965.93,-4.93 616.80,975.13,-4.93"/>
        <lane id=":A_13_3" index="3" speed="25.00" length="33.75" shape="616.80,941.53,-4.93 616.80,975.13,-4.93"/>
    </edge>
    <edge id=":A_17" function="internal">
        <lane id=":A_17_0" index="0" speed="11.36" length="5.01" shape="616.80,941.53,-4.93 616.09,946.50,-4.93"/>
    </edge>
    <edge id=":A_26" function="internal">
        <lane id=":A_26_0" index="0" speed="11.36" length="24.66" shape="616.09,946.50,-4.93 615.65,949.58,-4.93 612.20,955.33,-4.93 606.45,958.78,-4.93 598.40,959.93,-4.93"/>
    </edge>
    <edge id=":A_18" function="internal">
        <lane id=":A_18_0" index="0" speed="7.33" length="11.73" shape="598.40,947.13,-4.93 602.25,946.78,-4.93 605.00,945.73,-4.93 606.65,943.98,-4.93 607.20,941.53,-4.93"/>
    </edge>
    <edge id=":A_19" function="internal">
        <lane id=":A_19_0" index="0" speed="25.00" length="33.75" shape="598.40,947.13,-4.93 608.66,947.63,-4.93 615.90,948.73,-4.93 622.79,949.83,-4.93 632.00,950.33,-4.93"/>
        <lane id=":A_19_1" index="1" speed="25.00" length="33.75" shape="598.40,950.33,-4.93 608.66,950.83,-4.93 615.90,951.93,-4.93 622.79,953.03,-4.93 632.00,953.53,-4.93"/>
        <lane id=":A_19_2" index="2" speed="25.00" length="33.75" shape="598.40,953.53,-4.93 608.66,954.03,-4.93 615.90,955.13,-4.93 622.79,956.23,-4.93 632.00,956.73,-4.93"/>
        <lane id=":A_19_3" index="3" speed="25.00" length="33.75" shape="598.40,956.73,-4.93 632.00,956.73,-4.93"/>
    </edge>
    <edge id=":A_23" function="internal">
        <lane id=":A_23_0" index="0" speed="11.36" length="5.01" shape="598.40,956.73,-4.93 603.36,957.44,-4.93"/>
    </edge>
    <edge id=":A_27" function="internal">
        <lane id=":A_27_0" index="0" speed="11.36" length="24.66" shape="603.36,957.44,-4.93 606.45,957.88,-4.93 612.20,961.33,-4.93 615.65,967.08,-4.93 616.80,975.13,-4.93"/>
    </edge>
    <edge id=":AA_0" function="internal">
        <lane id=":AA_0_0" index="0" speed="3.65" length="4.67" shape="303.82,959.93,-4.93 302.62,959.13,-4.93 302.22,958.33,-4.93 302.62,957.53,-4.93 303.82,956.73,-4.93"/>
    </edge>
    <edge id=":AB_0" function="internal">
        <lane id=":AB_0_0" index="0" speed="3.65" length="4.67" shape="616.80,1269.71,-4.93 616.00,1270.91,-4.93 615.20,1271.31,-4.93 614.40,1270.91,-4.93 613.60,1269.71,-4.93"/>
    </edge>
    <edge id=":AC_0" function="internal">
        <lane id=":AC_0_0" index="0" speed="3.65" length="4.67" shape="926.57,956.73,-4.93 927.77,957.53,-4.93 928.17,958.33,-4.93 927.77,959.13,-4.93 926.57,959.93,-4.93"/>
    </edge>
    <edge id=":B_0" function="internal">
        <lane id=":B_0_0" index="0" speed="7.33" length="11.73" shape="930.55,660.56,5.07 930.00,658.11,5.07 928.35,656.36,5.07 925.60,655.31,5.07 921.75,654.96,5.07"/>
    </edge>
    <edge id=":B_1" function="internal">
        <lane id=":B_1_0" index="0" speed="25.00" length="27.43" shape="930.55,660.56,5.07 930.05,654.02,5.07 928.95,648.35,5.07 927.85,641.98,5.07 927.35,633.36,5.07"/>
        <lane id=":B_1_1" index="1" speed="25.00" length="27.43" shape="933.75,660.56,5.07 933.25,654.02,5.07 932.15,648.35,5.07 931.05,641.98,5.07 930.55,633.36,5.07"/>
    </edge>
    <edge id=":B_3" function="internal">
        <lane id=":B_3_0" index="0" speed="10.36" length="10.84" shape="933.75,660.56,5.07 934.70,653.91,5.07 936.82,650.38,5.07"/>
    </edge>
    <edge id=":B_16" function="internal">
        <lane id=":B_16_0" index="0" speed="10.36" length="13.67" shape="936.82,650.38,5.07 937.55,649.16,5.07 942.30,646.31,5.07 948.95,645.36,5.07"/>
    </edge>
    <edge id=":B_4" function="internal">
        <lane id=":B_4_0" index="0" speed="7.33" length="11.73" shape="948.95,651.76,5.07 946.50,652.31,5.07 944.75,653.96,5.07 943.70,656.71,5.07 943.35,660.56,5.07"/>
    </edge>
    <edge id=":B_5" function="internal">
        <lane id=":B_5_0" index="0" speed="25.00" length="27.43" shape="948.95,651.76,5.07 942.41,652.26,5.07 936.73,653.36,5.07 930.37,654.46,5.07 921.75,654.96,5.07"/>
        <lane id=":B_5_1" index="1" speed="25.00" length="27.43" shape="948.95,648.56,5.07 942.41,649.06,5.07 936.73,650.16,5.07 930.37,651.26,5.07 921.75,651.76,5.07"/>
    </edge>
    <edge id=":B_7" function="internal">
        <lane id=":B_7_0" index="0" speed="10.36" length="10.84" shape="948.95,648.56,5.07 942.30,647.61,5.07 938.76,645.49,5.07"/>
    </edge>
    <edge id=":B_17" function="internal">
        <lane id=":B_17_0" index="0" speed="10.36" length="13.67" shape="938.76,645.49,5.07 937.55,644.76,5.07 934.70,640.01,5.07 933.75,633.36,5.07"/>
    </edge>
    <edge id=":B_8" function="internal">
        <lane id=":B_8_0" index="0" speed="7.33" length="11.73" shape="940.15,633.36,5.07 940.70,635.81,5.07 942.35,637.56,5.07 945.10,638.61,5.07 948.95,638.96,5.07"/>
    </edge>
    <edge id=":B_9" function="internal">
        <lane id=":B_9_0" index="0" speed="25.00" length="27.43" shape="940.15,633.36,5.07 940.65,639.91,5.07 941.75,645.58,5.07 942.85,651.94,5.07 943.35,660.56,5.07"/>
        <lane id=":B_9_1" index="1" speed="25.00" length="27.43" shape="936.95,633.36,5.07 937.45,639.91,5.07 938.55,645.58,5.07 939.65,651.94,5.07 940.15,660.56,5.07"/>
    </edge>
    <edge id=":B_11" function="internal">
        <lane id=":B_11_0" index="0" speed="10.36" length="10.84" shape="936.95,633.36,5.07 936.00,640.01,5.07 933.88,643.55,5.07"/>
    </edge>
    <edge id=":B_18" function="internal">
        <lane id=":B_18_0" index="0" speed="10.36" length="13.67" shape="933.88,643.55,5.07 933.15,644.76,5.07 928.40,647.61,5.07 921.75,648.56,5.07"/>
    </edge>
    <edge id=":B_12" function="internal">
        <lane id=":B_12_0" index="0" speed="7.33" length="11.73" shape="921.75,642.16,5.07 924.20,641.61,5.07 925.95,639.96,5.07 927.00,637.21,5.07 927.35,633.36,5.07"/>
    </edge>
    <edge id=":B_13" function="internal">
        <lane id=":B_13_0" index="0" speed="25.00" length="27.43" shape="921.75,642.16,5.07 928.29,641.66,5.07 933.96,640.56,5.07 940.33,639.46,5.07 948.95,638.96,5.07"/>
        <lane id=":B_13_1" index="1" speed="25.00" length="27.43" shape="921.75,645.36,5.07 928.29,644.86,5.07 933.96,643.76,5.07 940.33,642.66,5.07 948.95,642.16,5.07"/>
    </edge>
    <edge id=":B_15" function="internal">
        <lane id=":B_15_0" index="0" speed="10.36" length="10.84" shape="921.75,645.36,5.07 928.40,646.31,5.07 931.94,648.44,5.07"/>
    </edge>
    <edge id=":B_19" function="internal">
        <lane id=":B_19_0" index="0" speed="10.36" length="13.67" shape="931.94,648.44,5.07 933.15,649.16,5.07 936.00,653.91,5.07 936.95,660.56,5.07"/>
    </edge>
    <edge id=":BA_0" function="internal">
        <lane id=":BA_0_0" index="0" speed="3.65" length="4.67" shape="936.95,967.12,5.07 936.15,968.32,5.07 935.35,968.72,5.07 934.55,968.32,5.07 933.75,967.12,5.07"/>
    </edge>
    <edge id=":BB_0" function="internal">
        <lane id=":BB_0_0" index="0" speed="3.65" length="4.67" shape="1255.50,645.36,5.07 1256.70,646.16,5.07 1257.10,646.96,5.07 1256.70,647.76,5.07 1255.50,648.56,5.07"/>
    </edge>
    <edge id=":BC_0" function="internal">
        <lane id=":BC_0_0" index="0" speed="3.65" length="4.67" shape="933.75,326.81,5.07 934.55,325.61,5.07 935.35,325.21,5.07 936.15,325.61,5.07 936.95,326.81,5.07"/>
    </edge>
    <edge id=":C_0" function="internal">
        <lane id=":C_0_0" index="0" speed="6.51" length="9.03" shape="607.20,337.08,5.62 606.85,334.63,5.62 605.80,332.88,5.62 604.05,331.83,5.62 601.60,331.48,5.62"/>
    </edge>
    <edge id=":C_1" function="internal">
        <lane id=":C_1_0" index="0" speed="25.00" length="27.20" shape="607.20,337.08,5.62 607.20,309.88,5.62"/>
        <lane id=":C_1_1" index="1" speed="25.00" length="27.20" shape="610.40,337.08,5.62 610.40,309.88,5.62"/>
        <lane id=":C_1_2" index="2" speed="25.00" length="27.20" shape="613.60,337.08,5.62 613.60,309.88,5.62"/>
    </edge>
    <edge id=":C_4" function="internal">
        <lane id=":C_4_0" index="0" speed="10.36" length="5.01" shape="613.60,337.08,5.62 614.31,332.12,5.62"/>
    </edge>
    <edge id=":C_20" function="internal">
        <lane id=":C_20_0" index="0" speed="10.36" length="19.50" shape="614.31,332.12,5.62 614.55,330.43,5.62 617.40,325.68,5.62 622.15,322.83,5.62 628.80,321.88,5.62"/>
    </edge>
    <edge id=":C_5" function="internal">
        <lane id=":C_5_0" index="0" speed="6.51" length="9.03" shape="628.80,331.48,5.62 626.35,331.83,5.62 624.60,332.88,5.62 623.55,334.63,5.62 623.20,337.08,5.62"/>
    </edge>
    <edge id=":C_6" function="internal">
        <lane id=":C_6_0" index="0" speed="25.00" length="27.20" shape="628.80,331.48,5.62 601.60,331.48,5.62"/>
        <lane id=":C_6_1" index="1" speed="25.00" length="27.20" shape="628.80,328.28,5.62 601.60,328.28,5.62"/>
        <lane id=":C_6_2" index="2" speed="25.00" length="27.20" shape="628.80,325.08,5.62 601.60,325.08,5.62"/>
    </edge>
    <edge id=":C_9" function="internal">
        <lane id=":C_9_0" index="0" speed="10.36" length="5.01" shape="628.80,325.08,5.62 623.83,324.37,5.62"/>
    </edge>
    <edge id=":C_21" function="internal">
        <lane id=":C_21_0" index="0" speed="10.36" length="19.50" shape="623.83,324.37,5.62 622.15,324.13,5.62 617.40,321.28,5.62 614.55,316.53,5.62 613.60,309.88,5.62"/>
    </edge>
    <edge id=":C_10" function="internal">
        <lane id=":C_10_0" index="0" speed="6.51" length="9.03" shape="623.20,309.88,5.62 623.55,312.33,5.62 624.60,314.08,5.62 626.35,315.13,5.62 628.80,315.48,5.62"/>
    </edge>
    <edge id=":C_11" function="internal">
        <lane id=":C_11_0" index="0" speed="25.00" length="27.20" shape="623.20,309.88,5.62 623.20,337.08,5.62"/>
        <lane id=":C_11_1" index="1" speed="25.00" length="27.20" shape="620.00,309.88,5.62 620.00,337.08,5.62"/>
        <lane id=":C_11_2" index="2" speed="25.00" length="27.20" shape="616.80,309.88,5.62 616.80,337.08,5.62"/>
    </edge>
    <edge id=":C_14" function="internal">
        <lane id=":C_14_0" index="0" speed="10.36" length="5.01" shape="616.80,309.88,5.62 616.09,314.85,5.62"/>
    </edge>
    <edge id=":C_22" function="internal">
        <lane id=":C_22_0" index="0" speed="10.36" length="19.50" shape="616.09,314.85,5.62 615.85,316.53,5.62 613.00,321.28,5.62 608.25,324.13,5.62 601.60,325.08,5.62"/>
    </edge>
    <edge id=":C_15" function="internal">
        <lane id=":C_15_0" index="0" speed="6.51" length="9.03" shape="601.60,315.48,5.62 604.05,315.13,5.62 605.80,314.08,5.62 606.85,312.33,5.62 607.20,309.88,5.62"/>
    </edge>
    <edge id=":C_16" function="internal">
        <lane id=":C_16_0" index="0" speed="25.00" length="27.20" shape="601.60,315.48,5.62 628.80,315.48,5.62"/>
        <lane id=":C_16_1" index="1" speed="25.00" length="27.20" shape="601.60,318.68,5.62 628.80,318.68,5.62"/>
        <lane id=":C_16_2" index="2" speed="25.00" length="27.20" shape="601.60,321.88,5.62 628.80,321.88,5.62"/>
    </edge>
    <edge id=":C_19" function="internal">
        <lane id=":C_19_0" index="0" speed="10.36" length="5.01" shape="601.60,321.88,5.62 606.56,322.59,5.62"/>
    </edge>
    <edge id=":C_23" function="internal">
        <lane id=":C_23_0" index="0" speed="10.36" length="19.50" shape="606.56,322.59,5.62 608.25,322.83,5.62 613.00,325.68,5.62 615.85,330.43,5.62 616.80,337.08,5.62"/>
    </edge>
    <edge id=":CA_0" function="internal">
        <lane id=":CA_0_0" index="0" speed="3.65" length="4.67" shape="938.68,321.88,5.62 939.88,322.68,5.62 940.28,323.48,5.62 939.88,324.28,5.62 938.68,325.08,5.62"/>
    </edge>
    <edge id=":CB_0" function="internal">
        <lane id=":CB_0_0" index="0" speed="3.65" length="4.67" shape="613.60,0.00,5.62 614.40,-1.20,5.62 615.20,-1.60,5.62 616.00,-1.20,5.62 616.80,0.00,5.62"/>
    </edge>
    <edge id=":CC_0" function="internal">
        <lane id=":CC_0_0" index="0" speed="3.65" length="4.67" shape="291.71,325.08,5.62 290.51,324.28,5.62 290.11,323.48,5.62 290.51,322.68,5.62 291.71,321.88,5.62"/>
    </edge>
    <edge id=":D_0" function="internal">
        <lane id=":D_0_0" index="0" speed="7.33" length="11.73" shape="302.80,660.56,2.44 302.25,658.11,2.44 300.60,656.36,2.44 297.85,655.31,2.44 294.00,654.96,2.44"/>
    </edge>
    <edge id=":D_1" function="internal">
        <lane id=":D_1_0" index="0" speed="25.00" length="27.43" shape="302.80,660.56,2.44 302.30,654.02,2.44 301.20,648.35,2.44 300.10,641.98,2.44 299.60,633.36,2.44"/>
        <lane id=":D_1_1" index="1" speed="25.00" length="27.43" shape="306.00,660.56,2.44 305.50,654.02,2.44 304.40,648.35,2.44 303.30,641.98,2.44 302.80,633.36,2.44"/>
    </edge>
    <edge id=":D_3" function="internal">
        <lane id=":D_3_0" index="0" speed="10.36" length="10.84" shape="306.00,660.56,2.44 306.95,653.91,2.41 309.07,650.38,2.39"/>
    </edge>
    <edge id=":D_16" function="internal">
        <lane id=":D_16_0" index="0" speed="10.36" length="13.67" shape="309.07,650.38,2.39 309.80,649.16,2.38 314.55,646.31,2.36 321.20,645.36,2.33"/>
    </edge>
    <edge id=":D_4" function="internal">
        <lane id=":D_4_0" index="0" speed="7.33" length="11.73" shape="321.20,651.76,2.33 318.75,652.31,2.35 317.00,653.96,2.38 315.95,656.71,2.40 315.60,660.56,2.44"/>
    </edge>
    <edge id=":D_5" function="internal">
        <lane id=":D_5_0" index="0" speed="25.00" length="27.43" shape="321.20,651.76,2.33 314.65,652.26,2.36 308.98,653.36,2.38 302.62,654.46,2.40 294.00,654.96,2.44"/>
        <lane id=":D_5_1" index="1" speed="25.00" length="27.43" shape="321.20,648.56,2.33 314.65,649.06,2.36 308.98,650.16,2.38 302.62,651.26,2.40 294.00,651.76,2.44"/>
    </edge>
    <edge id=":D_7" function="internal">
        <lane id=":D_7_0" index="0" speed="10.36" length="10.84" shape="321.20,648.56,2.33 314.55,647.61,2.36 311.01,645.49,2.38"/>
    </edge>
    <edge id=":D_17" function="internal">
        <lane id=":D_17_0" index="0" speed="10.36" length="13.67" shape="311.01,645.49,2.38 309.80,644.76,2.38 306.95,640.01,2.41 306.00,633.36,2.44"/>
    </edge>
    <edge id=":D_8" function="internal">
        <lane id=":D_8_0" index="0" speed="7.33" length="11.73" shape="312.40,633.36,2.44 312.95,635.81,2.41 314.60,637.56,2.39 317.35,638.61,2.37 321.20,638.96,2.33"/>
    </edge>
    <edge id=":D_9" function="internal">
        <lane id=":D_9_0" index="0" speed="25.00" length="27.43" shape="312.40,633.36,2.44 312.90,639.91,2.44 314.00,645.58,2.44 315.10,651.94,2.44 315.60,660.56,2.44"/>
        <lane id=":D_9_1" index="1" speed="25.00" length="27.43" shape="309.20,633.36,2.44 309.70,639.91,2.44 310.80,645.58,2.44 311.90,651.94,2.44 312.40,660.56,2.44"/>
    </edge>
    <edge id=":D_11" function="internal">
        <lane id=":D_11_0" index="0" speed="10.36" length="10.84" shape="309.20,633.36,2.44 308.25,640.01,2.44 306.13,643.55,2.44"/>
    </edge>
    <edge id=":D_18" function="internal">
        <lane id=":D_18_0" index="0" speed="10.36" length="13.67" shape="306.13,643.55,2.44 305.40,644.76,2.44 300.65,647.61,2.44 294.00,648.56,2.44"/>
    </edge>
    <edge id=":D_12" function="internal">
        <lane id=":D_12_0" index="0" speed="7.33" length="11.73" shape="294.00,642.16,2.44 296.45,641.61,2.44 298.20,639.96,2.44 299.25,637.21,2.44 299.60,633.36,2.44"/>
    </edge>
    <edge id=":D_13" function="internal">
        <lane id=":D_13_0" index="0" speed="25.00" length="27.43" shape="294.00,642.16,2.44 300.54,641.66,2.41 306.21,640.56,2.39 312.58,639.46,2.36 321.20,638.96,2.33"/>
        <lane id=":D_13_1" index="1" speed="25.00" length="27.43" shape="294.00,645.36,2.44 300.54,644.86,2.41 306.21,643.76,2.39 312.58,642.66,2.36 321.20,642.16,2.33"/>
    </edge>
    <edge id=":D_15" function="internal">
        <lane id=":D_15_0" index="0" speed="10.36" length="10.84" shape="294.00,645.36,2.44 300.65,646.31,2.44 304.19,648.44,2.44"/>
    </edge>
    <edge id=":D_19" function="internal">
        <lane id=":D_19_0" index="0" speed="10.36" length="13.67" shape="304.19,648.44,2.44 305.40,649.16,2.44 308.25,653.91,2.44 309.20,660.56,2.44"/>
    </edge>
    <edge id=":DA_0" function="internal">
        <lane id=":DA_0_0" index="0" speed="3.65" length="4.67" shape="306.00,339.37,2.44 306.80,338.17,2.44 307.60,337.77,2.44 308.40,338.17,2.44 309.20,339.37,2.44"/>
    </edge>
    <edge id=":DB_0" function="internal">
        <lane id=":DB_0_0" index="0" speed="3.65" length="4.67" shape="-0.00,648.56,2.44 -1.20,647.76,2.44 -1.60,646.96,2.44 -1.20,646.16,2.44 -0.00,645.36,2.44"/>
    </edge>
    <edge id=":DC_0" function="internal">
        <lane id=":DC_0_0" index="0" speed="3.65" length="4.67" shape="309.20,954.56,2.44 308.40,955.76,2.44 307.60,956.16,2.44 306.80,955.76,2.44 306.00,954.56,2.44"/>
    </edge>
    <edge id=":TL_0" function="internal">
        <lane id=":TL_0_0" index="0" speed="7.33" length="11.73" shape="607.20,660.56 606.85,656.71,0.04 605.80,653.96,0.06 604.05,652.31,0.08 601.60,651.76,0.11"/>
    </edge>
    <edge id=":TL_1" function="internal">
        <lane id=":TL_1_0" index="0" speed="25.00" length="27.20" shape="607.20,660.56 607.20,633.36"/>
        <lane id=":TL_1_1" index="1" speed="25.00" length="27.20" shape="610.40,660.56 610.40,633.36"/>
        <lane id=":TL_1_2" index="2" speed="25.00" length="27.20" shape="613.60,660.56 613.60,633.36"/>
    </edge>
    <edge id=":TL_4" function="internal">
        <lane id=":TL_4_0" index="0" speed="10.88" length="10.05" shape="613.60,660.56 614.75,653.91 616.68,651.24"/>
    </edge>
    <edge id=":TL_18" function="internal">
        <lane id=":TL_18_0" index="0" speed="10.88" length="17.10" shape="616.68,651.24 618.20,649.16 623.95,646.31 632.00,645.36"/>
    </edge>
    <edge id=":TL_5" function="internal">
        <lane id=":TL_5_0" index="0" speed="6.51" length="9.03" shape="632.00,654.96 629.55,655.31 627.80,656.36 626.75,658.11 626.40,660.56"/>
    </edge>
    <edge id=":TL_6" function="internal">
        <lane id=":TL_6_0" index="0" speed="25.00" length="30.61" shape="632.00,654.96 622.32,654.46,0.03 614.92,653.36,0.06 608.46,652.26,0.08 601.60,651.76,0.11"/>
        <lane id=":TL_6_1" index="1" speed="25.00" length="30.61" shape="632.00,651.76 622.32,651.26,0.03 614.92,650.16,0.06 608.46,649.06,0.08 601.60,648.56,0.11"/>
    </edge>
    <edge id=":TL_8" function="internal">
        <lane id=":TL_8_0" index="0" speed="10.88" length="9.36" shape="632.00,648.56 623.95,647.61 622.83,647.06"/>
    </edge>
    <edge id=":TL_19" function="internal">
        <lane id=":TL_19_0" index="0" speed="10.88" length="17.79" shape="622.83,647.06 618.20,644.76 614.75,640.01 613.60,633.36"/>
    </edge>
    <edge id=":TL_9" function="internal">
        <lane id=":TL_9_0" index="0" speed="8.00" length="14.19" shape="623.20,633.36 623.75,637.21 625.40,639.96 628.15,641.61 632.00,642.16"/>
    </edge>
    <edge id=":TL_10" function="internal">
        <lane id=":TL_10_0" index="0" speed="25.00" length="27.45" shape="623.20,633.36 623.70,641.46 624.80,646.96 625.90,652.46 626.40,660.56"/>
        <lane id=":TL_10_1" index="1" speed="25.00" length="27.45" shape="620.00,633.36 620.50,641.46 621.60,646.96 622.70,652.46 623.20,660.56"/>
        <lane id=":TL_10_2" index="2" speed="25.00" length="27.45" shape="616.80,633.36 617.30,641.46 618.40,646.96 619.50,652.46 620.00,660.56"/>
    </edge>
    <edge id=":TL_13" function="internal">
        <lane id=":TL_13_0" index="0" speed="10.36" length="5.01" shape="616.80,633.36 616.09,638.33,0.02"/>
    </edge>
    <edge id=":TL_20" function="internal">
        <lane id=":TL_20_0" index="0" speed="10.36" length="19.50" shape="616.09,638.33,0.02 615.85,640.01,0.03 613.00,644.76,0.05 608.25,647.61,0.08 601.60,648.56,0.11"/>
    </edge>
    <edge id=":TL_14" function="internal">
        <lane id=":TL_14_0" index="0" speed="6.51" length="9.03" shape="601.60,638.96,0.11 604.05,638.61,0.08 605.80,637.56,0.05 606.85,635.81,0.03 607.20,633.36"/>
    </edge>
    <edge id=":TL_15" function="internal">
        <lane id=":TL_15_0" index="0" speed="25.00" length="30.61" shape="601.60,638.96,0.11 611.27,639.46,0.07 618.67,640.56,0.05 625.14,641.66,0.02 632.00,642.16"/>
        <lane id=":TL_15_1" index="1" speed="25.00" length="30.61" shape="601.60,642.16,0.11 611.27,642.66,0.07 618.67,643.76,0.05 625.14,644.86,0.02 632.00,645.36"/>
    </edge>
    <edge id=":TL_17" function="internal">
        <lane id=":TL_17_0" index="0" speed="10.36" length="7.07" shape="601.60,645.36,0.11 608.25,646.31,0.08 608.55,646.50,0.08"/>
    </edge>
    <edge id=":TL_21" function="internal">
        <lane id=":TL_21_0" index="0" speed="10.36" length="17.44" shape="608.55,646.50,0.08 613.00,649.16,0.05 615.85,653.91,0.03 616.80,660.56"/>
    </edge>

    <edge id="A2AA" from="A" to="AA" priority="-1">
        <lane id="A2AA_0" index="0" speed="25.00" length="294.57" shape="598.40,966.33,-4.93 303.82,966.33,-4.93"/>
        <lane id="A2AA_1" index="1" speed="25.00" length="294.57" shape="598.40,963.13,-4.93 303.82,963.13,-4.93"/>
        <lane id="A2AA_2" index="2" speed="25.00" length="294.57" shape="598.40,959.93,-4.93 303.82,959.93,-4.93"/>
    </edge>
    <edge id="A2AB" from="A" to="AB" priority="-1">
        <lane id="A2AB_0" index="0" speed="25.00" length="294.57" shape="623.20,975.13,-4.93 623.20,1269.71,-4.93"/>
        <lane id="A2AB_1" index="1" speed="25.00" length="294.57" shape="620.00,975.13,-4.93 620.00,1269.71,-4.93"/>
        <lane id="A2AB_2" index="2" speed="25.00" length="294.57" shape="616.80,975.13,-4.93 616.80,1269.71,-4.93"/>
    </edge>
    <edge id="A2AC" from="A" to="AC" priority="-1">
        <lane id="A2AC_0" index="0" speed="25.00" length="294.57" shape="632.00,950.33,-4.93 926.57,950.33,-4.93"/>
        <lane id="A2AC_1" index="1" speed="25.00" length="294.57" shape="632.00,953.53,-4.93 926.57,953.53,-4.93"/>
        <lane id="A2AC_2" index="2" speed="25.00" length="294.57" shape="632.00,956.73,-4.93 926.57,956.73,-4.93"/>
    </edge>
    <edge id="A2TL" from="A" to="TL" priority="-1">
        <lane id="A2TL_0" index="0" speed="25.00" length="281.01" shape="607.20,941.53,-4.93 607.20,660.56"/>
        <lane id="A2TL_1" index="1" speed="25.00" length="281.01" shape="610.40,941.53,-4.93 610.40,660.56"/>
        <lane id="A2TL_2" index="2" speed="25.00" length="281.01" shape="613.60,941.53,-4.93 613.60,660.56"/>
    </edge>
    <edge id="AA2A" from="AA" to="A" priority="-1">
        <lane id="AA2A_0" index="0" speed="25.00" length="294.57" shape="303.82,947.13,-4.93 598.40,947.13,-4.93"/>
        <lane id="AA2A_1" index="1" speed="25.00" length="294.57" shape="303.82,950.33,-4.93 598.40,950.33,-4.93"/>
        <lane id="AA2A_2" index="2" speed="25.00" length="294.57" shape="303.82,953.53,-4.93 598.40,953.53,-4.93"/>
        <lane id="AA2A_3" index="3" speed="25.00" length="294.57" shape="303.82,956.73,-4.93 598.40,956.73,-4.93"/>
    </edge>
    <edge id="AB2A" from="AB" to="A" priority="-1">
        <lane id="AB2A_0" index="0" speed="25.00" length="294.57" shape="604.00,1269.71,-4.93 604.00,975.13,-4.93"/>
        <lane id="AB2A_1" index="1" speed="25.00" length="294.57" shape="607.20,1269.71,-4.93 607.20,975.13,-4.93"/>
        <lane id="AB2A_2" index="2" speed="25.00" length="294.57" shape="610.40,1269.71,-4.93 610.40,975.13,-4.93"/>
        <lane id="AB2A_3" index="3" speed="25.00" length="294.57" shape="613.60,1269.71,-4.93 613.60,975.13,-4.93"/>
    </edge>
    <edge id="AC2A" from="AC" to="A" priority="-1">
        <lane id="AC2A_0" index="0" speed="25.00" length="294.57" shape="926.57,969.53,-4.93 632.00,969.53,-4.93"/>
        <lane id="AC2A_1" index="1" speed="25.00" length="294.57" shape="926.57,966.33,-4.93 632.00,966.33,-4.93"/>
        <lane id="AC2A_2" index="2" speed="25.00" length="294.57" shape="926.57,963.13,-4.93 632.00,963.13,-4.93"/>
        <lane id="AC2A_3" index="3" speed="25.00" length="294.57" shape="926.57,959.93,-4.93 632.00,959.93,-4.93"/>
    </edge>
    <edge id="B2BA" from="B" to="BA" priority="-1">
        <lane id="B2BA_0" index="0" speed="25.00" length="306.55" shape="943.35,660.56,5.07 943.35,967.12,5.07"/>
        <lane id="B2BA_1" index="1" speed="25.00" length="306.55" shape="940.15,660.56,5.07 940.15,967.12,5.07"/>
        <lane id="B2BA_2" index="2" speed="25.00" length="306.55" shape="936.95,660.56,5.07 936.95,967.12,5.07"/>
    </edge>
    <edge id="B2BB" from="B" to="BB" priority="-1">
        <lane id="B2BB_0" index="0" speed="25.00" length="306.55" shape="948.95,638.96,5.07 1255.50,638.96,5.07"/>
        <lane id="B2BB_1" index="1" speed="25.00" length="306.55" shape="948.95,642.16,5.07 1255.50,642.16,5.07"/>
        <lane id="B2BB_2" index="2" speed="25.00" length="306.55" shape="948.95,645.36,5.07 1255.50,645.36,5.07"/>
    </edge>
    <edge id="B2BC" from="B" to="BC" priority="-1">
        <lane id="B2BC_0" index="0" speed="25.00" length="306.55" shape="927.35,633.36,5.07 927.35,326.81,5.07"/>
        <lane id="B2BC_1" index="1" speed="25.00" length="306.55" shape="930.55,633.36,5.07 930.55,326.81,5.07"/>
        <lane id="B2BC_2" index="2" speed="25.00" length="306.55" shape="933.75,633.36,5.07 933.75,326.81,5.07"/>
    </edge>
    <edge id="B2TL" from="B" to="TL" priority="-1">
        <lane id="B2TL_0" index="0" speed="25.00" length="289.80" shape="921.75,654.96,5.07 632.00,654.96"/>
        <lane id="B2TL_1" index="1" speed="25.00" length="289.80" shape="921.75,651.76,5.07 632.00,651.76"/>
        <lane id="B2TL_2" index="2" speed="25.00" length="289.80" shape="921.75,648.56,5.07 632.00,648.56"/>
    </edge>