<?xml version="1.0" encoding="UTF-8"?>

<!-- generated on 2022-10-11 17:10:57 by Eclipse SUMO netconvert Version 1.14.1
<configuration xmlns:xsi="http://www.w3.org/2001/XMLSchema-instance" xsi:noNamespaceSchemaLocation="http://sumo.dlr.de/xsd/netconvertConfiguration.xsd">

    <input>
        <node-files value="../data/salt-lake-city/nodes.nod.xml"/>
        <edge-files value="../data/salt-lake-city/edges.edg.xml"/>
        <connection-files value="../data/salt-lake-city/connections.con.xml"/>
    </input>

    <output>
        <output-file value="../data/salt-lake-city/sumo/net/127.net.xml"/>
    </output>

    <tls_building>
        <tls.minor-left.max-speed value="1"/>
    </tls_building>

    <report>
        <verbose value="true"/>
    </report>

</configuration>
-->

<net version="1.9" junctionCornerDetail="5" limitTurnSpeed="5.50" xmlns:xsi="http://www.w3.org/2001/XMLSchema-instance" xsi:noNamespaceSchemaLocation="http://sumo.dlr.de/xsd/net_file.xsd">

    <location netOffset="612.18,636.11" convBoundary="0.00,0.00,1245.45,1252.77" origBoundary="-612.18,-636.11,633.27,616.66" projParameter="!"/>

    <edge id=":A_0" function="internal">
        <lane id=":A_0_0" index="0" speed="6.51" length="9.03" shape="604.18,958.04,-1.41 603.83,955.59,-1.41 602.78,953.84,-1.41 601.03,952.79,-1.41 598.58,952.44,-1.41"/>
    </edge>
    <edge id=":A_1" function="internal">
        <lane id=":A_1_0" index="0" speed="30.00" length="27.20" shape="604.18,958.04,-1.41 604.18,930.84,-1.35"/>
        <lane id=":A_1_1" index="1" speed="30.00" length="27.20" shape="607.38,958.04,-1.41 607.38,930.84,-1.35"/>
        <lane id=":A_1_2" index="2" speed="30.00" length="27.20" shape="610.58,958.04,-1.41 610.58,930.84,-1.35"/>
    </edge>
    <edge id=":A_4" function="internal">
        <lane id=":A_4_0" index="0" speed="10.36" length="5.01" shape="610.58,958.04,-1.41 611.29,953.08,-1.41"/>
    </edge>
    <edge id=":A_20" function="internal">
        <lane id=":A_20_0" index="0" speed="10.36" length="19.50" shape="611.29,953.08,-1.41 611.53,951.39,-1.41 614.38,946.64,-1.41 619.13,943.79,-1.41 625.78,942.84,-1.41"/>
    </edge>
    <edge id=":A_5" function="internal">
        <lane id=":A_5_0" index="0" speed="6.51" length="9.03" shape="625.78,952.44,-1.41 623.33,952.79,-1.41 621.58,953.84,-1.41 620.53,955.59,-1.41 620.18,958.04,-1.41"/>
    </edge>
    <edge id=":A_6" function="internal">
        <lane id=":A_6_0" index="0" speed="30.00" length="27.20" shape="625.78,952.44,-1.41 598.58,952.44,-1.41"/>
        <lane id=":A_6_1" index="1" speed="30.00" length="27.20" shape="625.78,949.24,-1.41 598.58,949.24,-1.41"/>
        <lane id=":A_6_2" index="2" speed="30.00" length="27.20" shape="625.78,946.04,-1.41 598.58,946.04,-1.41"/>
    </edge>
    <edge id=":A_9" function="internal">
        <lane id=":A_9_0" index="0" speed="10.36" length="5.01" shape="625.78,946.04,-1.41 620.82,945.33,-1.40"/>
    </edge>
    <edge id=":A_21" function="internal">
        <lane id=":A_21_0" index="0" speed="10.36" length="19.50" shape="620.82,945.33,-1.40 619.13,945.09,-1.39 614.38,942.24,-1.38 611.53,937.49,-1.36 610.58,930.84,-1.35"/>
    </edge>
    <edge id=":A_10" function="internal">
        <lane id=":A_10_0" index="0" speed="6.51" length="9.03" shape="620.18,930.84,-1.35 620.53,933.29,-1.36 621.58,935.04,-1.38 623.33,936.09,-1.39 625.78,936.44,-1.41"/>
    </edge>
    <edge id=":A_11" function="internal">
        <lane id=":A_11_0" index="0" speed="30.00" length="27.20" shape="620.18,930.84,-1.35 620.18,958.04,-1.41"/>
        <lane id=":A_11_1" index="1" speed="30.00" length="27.20" shape="616.98,930.84,-1.35 616.98,958.04,-1.41"/>
        <lane id=":A_11_2" index="2" speed="30.00" length="27.20" shape="613.78,930.84,-1.35 613.78,958.04,-1.41"/>
    </edge>
    <edge id=":A_14" function="internal">
        <lane id=":A_14_0" index="0" speed="10.36" length="5.01" shape="613.78,930.84,-1.35 613.07,935.81,-1.36"/>
    </edge>
    <edge id=":A_22" function="internal">
        <lane id=":A_22_0" index="0" speed="10.36" length="19.50" shape="613.07,935.81,-1.36 612.83,937.49,-1.36 609.98,942.24,-1.38 605.23,945.09,-1.39 598.58,946.04,-1.41"/>
    </edge>
    <edge id=":A_15" function="internal">
        <lane id=":A_15_0" index="0" speed="6.51" length="9.03" shape="598.58,936.44,-1.41 601.03,936.09,-1.39 602.78,935.04,-1.38 603.83,933.29,-1.36 604.18,930.84,-1.35"/>
    </edge>
    <edge id=":A_16" function="internal">
        <lane id=":A_16_0" index="0" speed="30.00" length="27.20" shape="598.58,936.44,-1.41 625.78,936.44,-1.41"/>
        <lane id=":A_16_1" index="1" speed="30.00" length="27.20" shape="598.58,939.64,-1.41 625.78,939.64,-1.41"/>
        <lane id=":A_16_2" index="2" speed="30.00" length="27.20" shape="598.58,942.84,-1.41 625.78,942.84,-1.41"/>
    </edge>
    <edge id=":A_19" function="internal">
        <lane id=":A_19_0" index="0" speed="10.36" length="5.01" shape="598.58,942.84,-1.41 603.54,943.55,-1.41"/>
    </edge>
    <edge id=":A_23" function="internal">
        <lane id=":A_23_0" index="0" speed="10.36" length="19.50" shape="603.54,943.55,-1.41 605.23,943.79,-1.41 609.98,946.64,-1.41 612.83,951.39,-1.41 613.78,958.04,-1.41"/>
    </edge>
    <edge id=":AA_0" function="internal">
        <lane id=":AA_0_0" index="0" speed="3.65" length="4.67" shape="303.85,946.04,-1.41 302.65,945.24,-1.41 302.25,944.44,-1.41 302.65,943.64,-1.41 303.85,942.84,-1.41"/>
    </edge>
    <edge id=":AB_0" function="internal">
        <lane id=":AB_0_0" index="0" speed="3.65" length="4.67" shape="613.78,1252.77,-1.41 612.98,1253.97,-1.41 612.18,1254.37,-1.41 611.38,1253.97,-1.41 610.58,1252.77,-1.41"/>
    </edge>
    <edge id=":AC_0" function="internal">
        <lane id=":AC_0_0" index="0" speed="3.65" length="4.67" shape="920.51,942.84,-1.41 921.71,943.64,-1.41 922.11,944.44,-1.41 921.71,945.24,-1.41 920.51,946.04,-1.41"/>
    </edge>
    <edge id=":A_intern_0" function="internal">
        <lane id=":A_intern_0_0" index="0" speed="30.00" length="8.20" shape="604.18,690.11,-0.25 603.68,687.65,-0.24 602.58,686.11,-0.23 601.48,684.58,-0.22 600.98,682.11,-0.21"/>
        <lane id=":A_intern_0_1" index="1" speed="30.00" length="8.20" shape="604.18,690.11,-0.25 604.18,682.11,-0.21"/>
        <lane id=":A_intern_0_2" index="2" speed="30.00" length="8.20" shape="607.38,690.11,-0.25 607.38,682.11,-0.21"/>
        <lane id=":A_intern_0_3" index="3" speed="30.00" length="8.20" shape="610.58,690.11,-0.25 610.58,682.11,-0.21"/>
    </edge>
    <edge id=":C_0" function="internal">
        <lane id=":C_0_0" index="0" speed="6.51" length="9.03" shape="604.18,331.66,2.97 603.83,329.21,3.01 602.78,327.46,3.04 601.03,326.41,3.07 598.58,326.06,3.10"/>
    </edge>
    <edge id=":C_1" function="internal">
        <lane id=":C_1_0" index="0" speed="30.00" length="27.20" shape="604.18,331.66,2.97 604.18,304.46,3.10"/>
        <lane id=":C_1_1" index="1" speed="30.00" length="27.20" shape="607.38,331.66,2.97 607.38,304.46,3.10"/>
        <lane id=":C_1_2" index="2" speed="30.00" length="27.20" shape="610.58,331.66,2.97 610.58,304.46,3.10"/>
    </edge>
    <edge id=":C_4" function="internal">
        <lane id=":C_4_0" index="0" speed="10.36" length="5.01" shape="610.58,331.66,2.97 611.29,326.69,3.00"/>
    </edge>
    <edge id=":C_20" function="internal">
        <lane id=":C_20_0" index="0" speed="10.36" length="19.50" shape="611.29,326.69,3.00 611.53,325.01,3.01 614.38,320.26,3.04 619.13,317.41,3.07 625.78,316.46,3.10"/>
    </edge>
    <edge id=":C_5" function="internal">
        <lane id=":C_5_0" index="0" speed="6.51" length="9.03" shape="625.78,326.06,3.10 623.33,326.41,3.07 621.58,327.46,3.04 620.53,329.21,3.01 620.18,331.66,2.97"/>
    </edge>
    <edge id=":C_6" function="internal">
        <lane id=":C_6_0" index="0" speed="30.00" length="27.20" shape="625.78,326.06,3.10 598.58,326.06,3.10"/>
        <lane id=":C_6_1" index="1" speed="30.00" length="27.20" shape="625.78,322.86,3.10 598.58,322.86,3.10"/>
        <lane id=":C_6_2" index="2" speed="30.00" length="27.20" shape="625.78,319.66,3.10 598.58,319.66,3.10"/>
    </edge>
    <edge id=":C_9" function="internal">
        <lane id=":C_9_0" index="0" speed="10.36" length="5.01" shape="625.78,319.66,3.10 620.82,318.95,3.10"/>
    </edge>
    <edge id=":C_21" function="internal">
        <lane id=":C_21_0" index="0" speed="10.36" length="19.50" shape="620.82,318.95,3.10 619.13,318.71,3.10 614.38,315.86,3.10 611.53,311.11,3.10 610.58,304.46,3.10"/>
    </edge>
    <edge id=":C_10" function="internal">
        <lane id=":C_10_0" index="0" speed="6.51" length="9.03" shape="620.18,304.46,3.10 620.53,306.91,3.10 621.58,308.66,3.10 623.33,309.71,3.10 625.78,310.06,3.10"/>
    </edge>
    <edge id=":C_11" function="internal">
        <lane id=":C_11_0" index="0" speed="30.00" length="27.20" shape="620.18,304.46,3.10 620.18,331.66,2.97"/>
        <lane id=":C_11_1" index="1" speed="30.00" length="27.20" shape="616.98,304.46,3.10 616.98,331.66,2.97"/>
        <lane id=":C_11_2" index="2" speed="30.00" length="27.20" shape="613.78,304.46,3.10 613.78,331.66,2.97"/>
    </edge>
    <edge id=":C_14" function="internal">
        <lane id=":C_14_0" index="0" speed="10.36" length="5.01" shape="613.78,304.46,3.10 613.07,309.42,3.10"/>
    </edge>
    <edge id=":C_22" function="internal">
        <lane id=":C_22_0" index="0" speed="10.36" length="19.50" shape="613.07,309.42,3.10 612.83,311.11,3.10 609.98,315.86,3.10 605.23,318.71,3.10 598.58,319.66,3.10"/>
    </edge>
    <edge id=":C_15" function="internal">
        <lane id=":C_15_0" index="0" speed="6.51" length="9.03" shape="598.58,310.06,3.10 601.03,309.71,3.10 602.78,308.66,3.10 603.83,306.91,3.10 604.18,304.46,3.10"/>
    </edge>
    <edge id=":C_16" function="internal">
        <lane id=":C_16_0" index="0" speed="30.00" length="27.20" shape="598.58,310.06,3.10 625.78,310.06,3.10"/>
        <lane id=":C_16_1" index="1" speed="30.00" length="27.20" shape="598.58,313.26,3.10 625.78,313.26,3.10"/>
        <lane id=":C_16_2" index="2" speed="30.00" length="27.20" shape="598.58,316.46,3.10 625.78,316.46,3.10"/>
    </edge>
    <edge id=":C_19" function="internal">
        <lane id=":C_19_0" index="0" speed="10.36" length="5.01" shape="598.58,316.46,3.10 603.54,317.17,3.08"/>
    </edge>
    <edge id=":C_23" function="internal">
        <lane id=":C_23_0" index="0" speed="10.36" length="19.50" shape="603.54,317.17,3.08 605.23,317.41,3.07 609.98,320.26,3.04 612.83,325.01,3.01 613.78,331.66,2.97"/>
    </edge>
    <edge id=":CA_0" function="internal">
        <lane id=":CA_0_0" index="0" speed="3.65" length="4.67" shape="930.24,316.46,3.10 931.44,317.26,3.10 931.84,318.06,3.10 931.44,318.86,3.10 930.24,319.66,3.10"/>
    </edge>
    <edge id=":CB_0" function="internal">
        <lane id=":CB_0_0" index="0" speed="3.65" length="4.67" shape="610.58,0.00,3.10 611.38,-1.20,3.10 612.18,-1.60,3.10 612.98,-1.20,3.10 613.78,0.00,3.10"/>
    </edge>
    <edge id=":CC_0" function="internal">
        <lane id=":CC_0_0" index="0" speed="3.65" length="4.67" shape="294.12,319.66,3.10 292.92,318.86,3.10 292.52,318.06,3.10 292.92,317.26,3.10 294.12,316.46,3.10"/>
    </edge>
    <edge id=":C_intern_0" function="internal">
        <lane id=":C_intern_0_0" index="0" speed="30.00" length="8.60" shape="620.18,582.11,0.53 620.68,584.58,0.50 621.78,586.11,0.49 622.88,587.65,0.47 623.38,590.11,0.45"/>
        <lane id=":C_intern_0_1" index="1" speed="30.00" length="8.60" shape="616.98,582.11,0.53 617.48,584.58,0.50 618.58,586.11,0.49 619.68,587.65,0.47 620.18,590.11,0.45"/>
        <lane id=":C_intern_0_2" index="2" speed="30.00" length="8.60" shape="613.78,582.11,0.53 614.28,584.58,0.50 615.38,586.11,0.49 616.48,587.65,0.47 616.98,590.11,0.45"/>
        <lane id=":C_intern_0_3" index="3" speed="30.00" length="8.60" shape="613.78,582.11,0.53 613.78,590.11,0.45"/>
    </edge>
    <edge id=":TL_0" function="internal">
        <lane id=":TL_0_0" index="0" speed="6.51" length="9.03" shape="600.98,652.91,-0.08 600.63,650.46,-0.10 599.58,648.71,-0.11 597.83,647.66,-0.13 595.38,647.31,-0.15"/>
    </edge>
    <edge id=":TL_1" function="internal">
        <lane id=":TL_1_0" index="0" speed="30.00" length="21.12" shape="600.98,652.91,-0.08 601.48,646.71,-0.04 602.58,642.51,-0.02 603.68,638.32,0.00 604.18,632.11,0.04"/>
        <lane id=":TL_1_1" index="1" speed="30.00" length="21.12" shape="604.18,652.91,-0.08 604.68,646.71,-0.04 605.78,642.51,-0.02 606.88,638.32,0.00 607.38,632.11,0.04"/>
        <lane id=":TL_1_2" index="2" speed="30.00" length="21.12" shape="607.38,652.91,-0.08 607.88,646.71,-0.04 608.98,642.51,-0.02 610.08,638.32,0.00 610.58,632.11,0.04"/>
    </edge>
    <edge id=":TL_4" function="internal">
        <lane id=":TL_4_0" index="0" speed="7.33" length="11.73" shape="628.98,647.31,-0.05 625.13,647.66,-0.06 622.38,648.71,-0.06 620.73,650.46,-0.07 620.18,652.91,-0.08"/>
    </edge>
    <edge id=":TL_5" function="internal">
        <lane id=":TL_5_0" index="0" speed="35.00" length="33.60" shape="628.98,647.31,-0.05 595.38,647.31,-0.15"/>
        <lane id=":TL_5_1" index="1" speed="35.00" length="33.60" shape="628.98,644.11,-0.05 595.38,644.11,-0.15"/>
        <lane id=":TL_5_2" index="2" speed="35.00" length="33.60" shape="628.98,640.91,-0.05 595.38,640.91,-0.15"/>
        <lane id=":TL_5_3" index="3" speed="35.00" length="33.60" shape="628.98,637.71,-0.05 595.38,637.71,-0.15"/>
    </edge>
    <edge id=":TL_9" function="internal">
        <lane id=":TL_9_0" index="0" speed="9.51" length="20.48" shape="628.98,637.71,-0.05 620.93,637.36,-0.01 615.18,636.31,0.01 611.73,634.56,0.03 610.58,632.11,0.04"/>
    </edge>
    <edge id=":TL_10" function="internal">
        <lane id=":TL_10_0" index="0" speed="30.00" length="21.12" shape="623.38,632.11,0.04 622.88,638.32,0.00 621.78,642.51,-0.02 620.68,646.71,-0.04 620.18,652.91,-0.08"/>
        <lane id=":TL_10_1" index="1" speed="30.00" length="21.12" shape="620.18,632.11,0.04 619.68,638.32,0.00 618.58,642.51,-0.02 617.48,646.71,-0.04 616.98,652.91,-0.08"/>
        <lane id=":TL_10_2" index="2" speed="30.00" length="21.12" shape="616.98,632.11,0.04 616.48,638.32,0.00 615.38,642.51,-0.02 614.28,646.71,-0.04 613.78,652.91,-0.08"/>
    </edge>
    <edge id=":TL_13" function="internal">
        <lane id=":TL_13_0" index="0" speed="9.51" length="2.13" shape="613.78,632.11,0.04 612.87,634.04,0.02"/>
    </edge>
    <edge id=":TL_14" function="internal">
        <lane id=":TL_14_0" index="0" speed="9.51" length="18.35" shape="612.87,634.04,0.02 612.63,634.56,0.01 609.18,636.31,-0.02 603.43,637.36,-0.07 595.38,637.71,-0.15"/>
    </edge>

    <edge id="A2AA" from="A" to="AA" priority="-1">
        <lane id="A2AA_0" index="0" speed="30.00" length="294.73" shape="598.58,952.44,-1.41 303.85,952.44,-1.41"/>
        <lane id="A2AA_1" index="1" speed="30.00" length="294.73" shape="598.58,949.24,-1.41 303.85,949.24,-1.41"/>
        <lane id="A2AA_2" index="2" speed="30.00" length="294.73" shape="598.58,946.04,-1.41 303.85,946.04,-1.41"/>
    </edge>
    <edge id="A2AB" from="A" to="AB" priority="-1">
        <lane id="A2AB_0" index="0" speed="30.00" length="294.73" shape="620.18,958.04,-1.41 620.18,1252.77,-1.41"/>
        <lane id="A2AB_1" index="1" speed="30.00" length="294.73" shape="616.98,958.04,-1.41 616.98,1252.77,-1.41"/>
        <lane id="A2AB_2" index="2" speed="30.00" length="294.73" shape="613.78,958.04,-1.41 613.78,1252.77,-1.41"/>
    </edge>
    <edge id="A2AC" from="A" to="AC" priority="-1">
        <lane id="A2AC_0" index="0" speed="30.00" length="294.73" shape="625.78,936.44,-1.41 920.51,936.44,-1.41"/>
        <lane id="A2AC_1" index="1" speed="30.00" length="294.73" shape="625.78,939.64,-1.41 920.51,939.64,-1.41"/>
        <lane id="A2AC_2" index="2" speed="30.00" length="294.73" shape="625.78,942.84,-1.41 920.51,942.84,-1.41"/>
    </edge>
    <edge id="A2TL" from="A" to="A_intern" priority="-1">
        <lane id="A2TL_0" index="0" speed="30.00" length="240.73" shape="604.18,930.84,-1.35 604.18,690.11,-0.25"/>
        <lane id="A2TL_1" index="1" speed="30.00" length="240.73" shape="607.38,930.84,-1.35 607.38,690.11,-0.25"/>
        <lane id="A2TL_2" index="2" speed="30.00" length="240.73" shape="610.58,930.84,-1.35 610.58,690.11,-0.25"/>
    </edge>
    <edge id="A2TL_intern" from="A_intern" to="TL" priority="-1">
        <lane id="A2TL_intern_0" index="0" speed="30.00" length="29.20" shape="600.98,682.11,-0.21 600.98,652.91,-0.08"/>
        <lane id="A2TL_intern_1" index="1" speed="30.00" length="29.20" shape="604.18,682.11,-0.21 604.18,652.91,-0.08"/>
        <lane id="A2TL_intern_2" index="2" speed="30.00" length="29.20" shape="607.38,682.11,-0.21 607.38,652.91,-0.08"/>
        <lane id="A2TL_intern_3" index="3" speed="30.00" length="29.20" shape="610.58,682.11,-0.21 610.58,652.91,-0.08"/>
    </edge>
    <edge id="AA2A" from="AA" to="A" priority="-1">
        <lane id="AA2A_0" index="0" speed="30.00" length="294.73" shape="303.85,936.44,-1.41 598.58,936.44,-1.41"/>
        <lane id="AA2A_1" index="1" speed="30.00" length="294.73" shape="303.85,939.64,-1.41 598.58,939.64,-1.41"/>
        <lane id="AA2A_2" index="2" speed="30.00" length="294.73" shape="303.85,942.84,-1.41 598.58,942.84,-1.41"/>
    </edge>
    <edge id="AB2A" from="AB" to="A" priority="-1">
        <lane id="AB2A_0" index="0" speed="30.00" length="294.73" shape="604.18,1252.77,-1.41 604.18,958.04,-1.41"/>
        <lane id="AB2A_1" index="1" speed="30.00" length="294.73" shape="607.38,1252.77,-1.41 607.38,958.04,-1.41"/>
        <lane id="AB2A_2" index="2" speed="30.00" length="294.73" shape="610.58,1252.77,-1.41 610.58,958.04,-1.41"/>
    </edge>
    <edge id="AC2A" from="AC" to="A" priority="-1">
        <lane id="AC2A_0" index="0" speed="30.00" length="294.73" shape="920.51,952.44,-1.41 625.78,952.44,-1.41"/>
        <lane id="AC2A_1" index="1" speed="30.00" length="294.73" shape="920.51,949.24,-1.41 625.78,949.24,-1.41"/>
        <lane id="AC2A_2" index="2" speed="30.00" length="294.73" shape="920.51,946.04,-1.41 625.78,946.04,-1.41"/>
    </edge>
    <edge id="B2BA" from="B" to="BA" priority="-1">
        <lane id="B2BA_0" index="0" speed="35.00" length="302.34" shape="940.02,650.41,-0.87 940.02,952.75,-0.87"/>
        <lane id="B2BA_1" index="1" speed="35.00" length="302.34" shape="936.82,650.41,-0.87 936.82,952.75,-0.87"/>
        <lane id="B2BA_2" index="2" speed="35.00" length="302.34" shape="933.62,650.41,-0.87 933.62,952.75,-0.87"/>
        <lane id="B2BA_3" index="3" speed="35.00" length="302.34" shape="930.42,650.41,-0.87 930.42,952.75,-0.87"/>
    </edge>
    <edge id="B2BB" from="B" to="BB" priority="-1">
        <lane id="B2BB_0" index="0" speed="35.00" length="302.34" shape="943.12,624.91,-0.87 1245.45,624.91,-0.87"/>
        <lane id="B2BB_1" index="1" speed="35.00" length="302.34" shape="943.12,628.11,-0.87 1245.45,628.11,-0.87"/>
        <lane id="B2BB_2" index="2" speed="35.00" length="302.34" shape="943.12,631.31,-0.87 1245.45,631.31,-0.87"/>
        <lane id="B2BB_3" index="3" speed="35.00" length="302.34" shape="943.12,634.51,-0.87 1245.45,634.51,-0.87"/>
    </edge>
    <edge id="B2BC" from="B" to="BC" priority="-1">
        <lane id="B2BC_0" index="0" speed="35.00" length="302.34" shape="917.62,621.81,-0.87 917.62,319.48,-0.87"/>
        <lane id="B2BC_1" index="1" speed="35.00" length="302.34" shape="920.82,621.81,-0.87 920.82,319.48,-0.87"/>
        <lane id="B2BC_2" index="2" speed="35.00" length="302.34" shape="924.02,621.81,-0.87 924.02,319.48,-0.87"/>
        <lane id="B2BC_3" index="3" speed="35.00" length="302.34" shape="927.22,621.81,-0.87 927.22,319.48,-0.87"/>
    </edge>
    <edge id="B2TL" from="B" to="TL" priority="-1">
        <lane id="B2TL_0" index="0" speed="35.00" length="285.54" shape="914.52,647.31,-0.83 628.98,647.31,-0.05"/>
        <lane id="B2TL_1" index="1" speed="35.00" length="285.54" shape="914.52,644.11,-0.83 628.98,644.11,-0.05"/>
        <lane id="B2TL_2" index="2" speed="35.00" length="285.54" shape="914.52,640.91,-0.83 628.98,640.91,-0.05"/>
        <lane id="B2TL_3" index="3" speed="35.00" length="285.54" shape="914.52,637.71,-0.83 628.98,637.71,-0.05"/>
    </edge>
    <edge id="C2CA" from="C" to="CA" priority="-1">
        <lane id="C2CA_0" index="0" speed="30.00" length="304.46" shape="625.78,310.06,3.10 930.24,310.06,3.10"/>
        <lane id="C2CA_1" index="1" speed="30.00" length="304.46" shape="625.78,313.26,3.10 930.24,313.26,3.10"/>
        <lane id="C2CA_2" index="2" speed="30.00" length="304.46" shape="625.78,316.46,3.10 930.24,316.46,3.10"/>
    </edge>
    <edge id="C2CB" from="C" to="CB" priority="-1">
        <lane id="C2CB_0" index="0" speed="30.00" length="304.46" shape="604.18,304.46,3.10 604.18,0.00,3.10"/>
        <lane id="C2CB_1" index="1" speed="30.00" length="304.46" shape="607.38,304.46,3.10 607.38,0.00,3.10"/>
        <lane id="C2CB_2" index="2" speed="30.00" length="304.46" shape="610.58,304.46,3.10 610.58,0.00,3.10"/>
    </edge>
    <edge id="C2CC" from="C" to="CC" priority="-1">
        <lane id="C2CC_0" index="0" speed="30.00" length="304.46" shape="598.58,326.06,3.10 294.12,326.06,3.10"/>
        <lane id="C2CC_1" index="1" speed="30.00" length="304.46" shape="598.58,322.86,3.10 294.12,322.86,3.10"/>
        <lane id="C2CC_2" index="2" speed="30.00" length="304.46" shape="598.58,319.66,3.10 294.12,319.66,3.10"/>
    </edge>
    <edge id="C2TL" from="C" to="C_intern" priority="-1">
        <lane id="C2TL_0" index="0" speed="30.00" length="250.47" shape="620.18,331.66,2.97 620.18,582.11,0.53"/>
        <lane id="C2TL_1" index="1" speed="30.00" length="250.47" shape="616.98,331.66,2.97 616.98,582.11,0.53"/>
        <lane id="C2TL_2" index="2" speed="30.00" length="250.47" shape="613.78,331.66,2.97 613.78,582.11,0.53"/>
    </edge>
    <edge id="C2TL_intern" from="C_intern" to="TL" priority="-1">
        <lane id="C2TL_intern_0" index="0" speed="30.00" length="42.00" shape="623.38,590.11,0.45 623.38,632.11,0.04"/>
        <lane id="C2TL_intern_1" index="1" speed="30.00" length="42.00" shape="620.18,590.11,0.45 620.18,632.11,0.04"/>
        <lane id="C2TL_intern_2" index="2" speed="30.00" length="42.00" shape="616.98,590.11,0.45 616.98,632.11,0.04"/>
        <lane id="C2TL_intern_3" index="3" speed="30.00" length="42.00" shape="613.78,590.11,0.45 613.78,632.11,0.04"/>
    </edge>
    <edge id="CA2C" from="CA" to="C" priority="-1">
        <lane id="CA2C_0" index="0" speed="30.00" length="304.46" shape="930.24,326.06,3.10 625.78,326.06,3.10"/>
        <lane id="CA2C_1" index="1" speed="30.00" length="304.46" shape="930.24,322.86,3.10 625.78,322.86,3.10"/>
        <lane id="CA2C_2" index="2" speed="30.00" length="304.46" shape="930.24,319.66,3.10 625.78,319.66,3.10"/>
    </edge>
    <edge id="CB2C" from="CB" to="C" priority="-1">
        <lane id="CB2C_0" index="0" speed="30.00" length="304.46" shape="620.18,0.00,3.10 620.18,304.46,3.10"/>
        <lane id="CB2C_1" index="1" speed="30.00" length="304.46" shape="616.98,0.00,3.10 616.98,304.46,3.10"/>
        <lane id="CB2C_2" index="2" speed="30.00" length="304.46" shape="613.78,0.00,3.10 613.78,304.46,3.10"/>
    </edge>
    <edge id="CC2C" from="CC" to="C" priority="-1">
        <lane id="CC2C_0" index="0" speed="30.00" length="304.46" shape="294.12,310.06,3.10 598.58,310.06,3.10"/>
        <lane id="CC2C_1" index="1" speed="30.00" length="304.46" shape="294.12,313.26,3.10 598.58,313.26,3.10"/>
        <lane id="CC2C_2" index="2" speed="30.00" length="304.46" shape="294.12,316.46,3.10 598.58,316.46,3.10"/>
    </edge>
    <edge id="DA2D" from="DA" to="D" priority="-1">
        <lane id="DA2D_0" index="0" speed="35.00" length="291.79" shape="317.29,330.03,-2.71 317.29,621.81,-2.71"/>
        <lane id="DA2D_1" index="1" speed="35.00" length="291.79" shape="314.09,330.03,-2.71 314.09,621.81,-2.71"/>
        <lane id="DA2D_2" index="2" speed="35.00" length="291.79" shape="310.89,330.03,-2.71 310.89,621.81,-2.71"/>
        <lane id="DA2D_3" index="3" speed="35.00" length="291.79" shape="307.69,330.03,-2.71 307.69,621.81,-2.71"/>
    </edge>
    <edge id="DB2D" from="DB" to="D" priority="-1">
        <lane id="DB2D_0" index="0" speed="35.00" length="291.79" shape="-0.00,624.91,-2.71 291.79,624.91,-2.71"/>
        <lane id="DB2D_1" index="1" speed="35.00" length="291.79" shape="-0.00,628.11,-2.71 291.79,628.11,-2.71"/>
        <lane id="DB2D_2" index="2" speed="35.00" length="291.79" shape="-0.00,631.31,-2.71 291.79,631.31,-2.71"/>
        <lane id="DB2D_3" index="3" speed="35.00" length="291.79" shape="-0.00,634.51,-2.71 291.79,634.51,-2.71"/>
    </edge>
    <edge id="DC2D" from="DC" to="D" priority="-1">
        <lane id="DC2D_0" index="0" speed="35.00" length="291.79" shape="294.89,942.20,-2.71 294.89,650.41,-2.71"/>
        <lane id="DC2D_1" index="1" speed="35.00" length="291.79" shape="298.09,942.20,-2.71 298.09,650.41,-2.71"/>
        <lane id="DC2D_2" index="2" speed="35.00" length="291.79" shape="301.29,942.20,-2.71 301.29,650.41,-2.71"/>
        <lane id="DC2D_3" index="3" speed="35.00" length="291.79" shape="304.49,942.20,-2.71 304.49,650.41,-2.71"/>
    </edge>
    <edge id="TL2A" from="TL" to="A" priority="-1">
        <lane id="TL2A_0" index="0" speed="30.00" length="277.93" shape="620.18,652.91,-0.08 620.18,930.84,-1.35"/>
        <lane id="TL2A_1" index="1" speed="30.00" length="277.93" shape="616.98,652.91,-0.08 616.98,930.84,-1.35"/>
        <lane id="TL2A_2" index="2" speed="30.00" length="277.93" shape="613.78,652.91,-0.08 613.78,930.84,-1.35"/>
    </edge>
    <edge id="TL2C" from="TL" to="C" priority="-1">
        <lane id="TL2C_0" index="0" speed="30.00" length="300.47" shape="604.18,632.11,0.04 604.18,331.66,2.97"/>
        <lane id="TL2C_1" index="1" speed="30.00" length="300.47" shape="607.38,632.11,0.04 607.38,331.66,2.97"/>
        <lane id="TL2C_2" index="2" speed="30.00" length="300.47" shape="610.58,632.11,0.04 610.58,331.66,2.97"/>
    </edge>
    <edge id="TL2D" from="TL" to="D" priority="-1">
        <lane id="TL2D_0" index="0" speed="35.00" length="275.00" shape="595.38,647.31,-0.15 320.39,647.31,-2.58"/>
        <lane id="TL2D_1" index="1" speed="35.00" length="275.00" shape="595.38,644.11,-0.15 320.39,644.11,-2.58"/>
        <lane id="TL2D_2" index="2" speed="35.00" length="275.00" shape="595.38,640.91,-0.15 320.39,640.91,-2.58"/>
        <lane id="TL2D_3" index="3" speed="35.00" length="275.00" shape="595.38,637.71,-0.15 320.39,637.71,-2.58"/>
    </edge>

    <tlLogic id="A" type="static" programID="0" offset="0">
        <phase duration="39" state="GGGGgrrrrrGGGGgrrrrr"/>
        <phase duration="6"  state="yyyyyrrrrryyyyyrrrrr"/>
        <phase duration="39" state="rrrrrGGGGgrrrrrGGGGg"/>
        <phase duration="6"  state="rrrrryyyyyrrrrryyyyy"/>
    </tlLogic>
    <tlLogic id="AA" type="static" programID="0" offset="0">
        <phase duration="79" state="G"/>
        <phase duration="6"  state="y"/>
        <phase duration="5"  state="r"/>
    </tlLogic>
    <tlLogic id="AB" type="static" programID="0" offset="0">
        <phase duration="79" state="G"/>
        <phase duration="6"  state="y"/>
        <phase duration="5"  state="r"/>
    </tlLogic>
    <tlLogic id="AC" type="static" programID="0" offset="0">
        <phase duration="79" state="G"/>
        <phase duration="6"  state="y"/>
        <phase duration="5"  state="r"/>
    </tlLogic>
    <tlLogic id="C" type="static" programID="0" offset="0">
        <phase duration="39" state="GGGGgrrrrrGGGGgrrrrr"/>
        <phase duration="6"  state="yyyyyrrrrryyyyyrrrrr"/>
        <phase duration="39" state="rrrrrGGGGgrrrrrGGGGg"/>
        <phase duration="6"  state="rrrrryyyyyrrrrryyyyy"/>
    </tlLogic>
    <tlLogic id="CA" type="static" programID="0" offset="0">
        <phase duration="79" state="G"/>
        <phase duration="6"  state="y"/>
        <phase duration="5"  state="r"/>
    </tlLogic>
    <tlLogic id="CB" type="static" programID="0" offset="0">
        <phase duration="79" state="G"/>
        <phase duration="6"  state="y"/>
        <phase duration="5"  state="r"/>
    </tlLogic>
    <tlLogic id="CC" type="static" programID="0" offset="0">
        <phase duration="79" state="G"/>
        <phase duration="6"  state="y"/>
        <phase duration="5"  state="r"/>
    </tlLogic>
    <tlLogic id="TL" type="static" programID="0" offset="0">
        <phase duration="32" state="GGGGsrrrrrGGGr"/>
        <phase duration="7"  state="yyyysrrrrryyyr"/>
        <phase duration="6"  state="rrrrsrrrrrGGGG"/>
        <phase duration="7"  state="rrrrsrrrrryyyy"/>
        <phase duration="31" state="srrrGGGGGGrrrr"/>
        <phase duration="7"  state="srrryyyyyyrrrr"/>
    </tlLogic>

    <junction id="A" type="traffic_light" x="612.18" y="944.44" z="-1.41" incLanes="AB2A_0 AB2A_1 AB2A_2 AC2A_0 AC2A_1 AC2A_2 TL2A_0 TL2A_1 TL2A_2 AA2A_0 AA2A_1 AA2A_2" intLanes=":A_0_0 :A_1_0 :A_1_1 :A_1_2 :A_20_0 :A_5_0 :A_6_0 :A_6_1 :A_6_2 :A_21_0 :A_10_0 :A_11_0 :A_11_1 :A_11_2 :A_22_0 :A_15_0 :A_16_0 :A_16_1 :A_16_2 :A_23_0" shape="602.58,958.04,-1.41 621.78,958.04,-1.41 622.22,955.82,-1.41 622.78,955.04,-1.41 623.56,954.49,-1.41 624.56,954.15,-1.41 625.78,954.04,-1.41 625.78,934.84,-1.41 623.56,934.40,-1.41 622.78,933.84,-1.41 622.22,933.07,-1.41 621.89,932.07,-1.41 621.78,930.84,-1.41 602.58,930.84,-1.41 602.13,933.07,-1.41 601.58,933.84,-1.41 600.80,934.40,-1.41 599.80,934.73,-1.41 598.58,934.84,-1.41 598.58,954.04,-1.41 600.80,954.49,-1.41 601.58,955.04,-1.41 602.13,955.82,-1.41 602.47,956.82,-1.41">
        <request index="0"  response="00000000000000000000" foes="00000000000111000000" cont="0"/>
        <request index="1"  response="10000000001000000000" foes="11111100001111000000" cont="0"/>
        <request index="2"  response="10000000001000000000" foes="11111100001111000000" cont="0"/>