<?xml version="1.0" encoding="UTF-8"?>

<!-- generated on 2022-10-11 16:45:13 by Eclipse SUMO netconvert Version 1.14.1
<configuration xmlns:xsi="http://www.w3.org/2001/XMLSchema-instance" xsi:noNamespaceSchemaLocation="http://sumo.dlr.de/xsd/netconvertConfiguration.xsd">

    <input>
        <node-files value="../data/salt-lake-city/nodes.nod.xml"/>
        <edge-files value="../data/salt-lake-city/edges.edg.xml"/>
        <connection-files value="../data/salt-lake-city/connections.con.xml"/>
    </input>

    <output>
        <output-file value="../data/salt-lake-city/sumo/net/129.net.xml"/>
    </output>

    <tls_building>
        <tls.minor-left.max-speed value="1"/>
    </tls_building>

    <report>
        <verbose value="true"/>
    </report>

</configuration>
-->

<net version="1.9" junctionCornerDetail="5" limitTurnSpeed="5.50" xmlns:xsi="http://www.w3.org/2001/XMLSchema-instance" xsi:noNamespaceSchemaLocation="http://sumo.dlr.de/xsd/net_file.xsd">

    <location netOffset="329.29,358.81" convBoundary="0.00,0.00,977.68,1001.22" origBoundary="-329.29,-358.81,648.39,642.42" projParameter="!"/>

    <edge id=":A_0" function="internal">
        <lane id=":A_0_0" index="0" speed="6.51" length="9.03" shape="327.69,687.21,10.08 327.34,684.76,10.08 326.29,683.01,10.08 324.54,681.96,10.08 322.09,681.61,10.08"/>
    </edge>
    <edge id=":A_1" function="internal">
        <lane id=":A_1_0" index="0" speed="25.00" length="14.40" shape="327.69,687.21,10.08 327.69,672.81,10.08"/>
    </edge>
    <edge id=":A_2" function="internal">
        <lane id=":A_2_0" index="0" speed="6.51" length="9.03" shape="336.49,681.61,10.08 334.04,681.96,10.08 332.29,683.01,10.08 331.24,684.76,10.08 330.89,687.21,10.08"/>
    </edge>
    <edge id=":A_3" function="internal">
        <lane id=":A_3_0" index="0" speed="25.00" length="14.40" shape="336.49,681.61,10.08 322.09,681.61,10.08"/>
    </edge>
    <edge id=":A_4" function="internal">
        <lane id=":A_4_0" index="0" speed="6.51" length="9.03" shape="330.89,672.81,10.08 331.24,675.26,10.08 332.29,677.01,10.08 334.04,678.06,10.08 336.49,678.41,10.08"/>
    </edge>
    <edge id=":A_5" function="internal">
        <lane id=":A_5_0" index="0" speed="25.00" length="14.40" shape="330.89,672.81,10.08 330.89,687.21,10.08"/>
    </edge>
    <edge id=":A_6" function="internal">
        <lane id=":A_6_0" index="0" speed="6.51" length="9.03" shape="322.09,678.41,10.08 324.54,678.06,10.08 326.29,677.01,10.08 327.34,675.26,10.08 327.69,672.81,10.08"/>
    </edge>
    <edge id=":A_7" function="internal">
        <lane id=":A_7_0" index="0" speed="25.00" length="14.40" shape="322.09,678.41,10.08 336.49,678.41,10.08"/>
    </edge>
    <edge id=":AA_0" function="internal">
        <lane id=":AA_0_0" index="0" speed="3.65" length="4.67" shape="8.08,681.61,10.08 6.88,680.81,10.08 6.48,680.01,10.08 6.88,679.21,10.08 8.08,678.41,10.08"/>
    </edge>
    <edge id=":AB_0" function="internal">
        <lane id=":AB_0_0" index="0" speed="3.65" length="4.67" shape="330.89,1001.22,10.08 330.09,1002.42,10.08 329.29,1002.82,10.08 328.49,1002.42,10.08 327.69,1001.22,10.08"/>
    </edge>
    <edge id=":AC_0" function="internal">
        <lane id=":AC_0_0" index="0" speed="3.65" length="4.67" shape="650.49,678.41,10.08 651.69,679.21,10.08 652.09,680.01,10.08 651.69,680.81,10.08 650.49,681.61,10.08"/>
    </edge>
    <edge id=":B_0" function="internal">
        <lane id=":B_0_0" index="0" speed="6.51" length="9.03" shape="648.68,369.21,-13.14 648.33,366.76,-13.14 647.28,365.01,-13.14 645.53,363.96,-13.14 643.08,363.61,-13.14"/>
    </edge>
    <edge id=":B_1" function="internal">
        <lane id=":B_1_0" index="0" speed="30.00" length="20.80" shape="648.68,369.21,-13.14 648.68,348.41,-13.14"/>
        <lane id=":B_1_1" index="1" speed="30.00" length="20.80" shape="651.88,369.21,-13.14 651.88,348.41,-13.14"/>
    </edge>
    <edge id=":B_3" function="internal">
        <lane id=":B_3_0" index="0" speed="9.26" length="5.01" shape="651.88,369.21,-13.14 652.59,364.24,-13.14"/>
    </edge>
    <edge id=":B_16" function="internal">
        <lane id=":B_16_0" index="0" speed="9.26" length="14.34" shape="652.59,364.24,-13.14 652.63,363.96,-13.14 654.88,360.21,-13.14 658.63,357.96,-13.14 663.88,357.21,-13.14"/>
    </edge>
    <edge id=":B_4" function="internal">
        <lane id=":B_4_0" index="0" speed="6.51" length="9.03" shape="663.88,363.61,-13.14 661.43,363.96,-13.14 659.68,365.01,-13.14 658.63,366.76,-13.14 658.28,369.21,-13.14"/>
    </edge>
    <edge id=":B_5" function="internal">
        <lane id=":B_5_0" index="0" speed="30.00" length="20.80" shape="663.88,363.61,-13.14 643.08,363.61,-13.14"/>
        <lane id=":B_5_1" index="1" speed="30.00" length="20.80" shape="663.88,360.41,-13.14 643.08,360.41,-13.14"/>
    </edge>
    <edge id=":B_7" function="internal">
        <lane id=":B_7_0" index="0" speed="9.26" length="5.01" shape="663.88,360.41,-13.14 658.92,359.70,-13.14"/>
    </edge>
    <edge id=":B_17" function="internal">
        <lane id=":B_17_0" index="0" speed="9.26" length="14.34" shape="658.92,359.70,-13.14 658.63,359.66,-13.14 654.88,357.41,-13.14 652.63,353.66,-13.14 651.88,348.41,-13.14"/>
    </edge>
    <edge id=":B_8" function="internal">
        <lane id=":B_8_0" index="0" speed="6.51" length="9.03" shape="658.28,348.41,-13.14 658.63,350.86,-13.14 659.68,352.61,-13.14 661.43,353.66,-13.14 663.88,354.01,-13.14"/>
    </edge>
    <edge id=":B_9" function="internal">
        <lane id=":B_9_0" index="0" speed="30.00" length="20.80" shape="658.28,348.41,-13.14 658.28,369.21,-13.14"/>
        <lane id=":B_9_1" index="1" speed="30.00" length="20.80" shape="655.08,348.41,-13.14 655.08,369.21,-13.14"/>
    </edge>
    <edge id=":B_11" function="internal">
        <lane id=":B_11_0" index="0" speed="9.26" length="5.01" shape="655.08,348.41,-13.14 654.37,353.37,-13.14"/>
    </edge>
    <edge id=":B_18" function="internal">
        <lane id=":B_18_0" index="0" speed="9.26" length="14.34" shape="654.37,353.37,-13.14 654.33,353.66,-13.14 652.08,357.41,-13.14 648.33,359.66,-13.14 643.08,360.41,-13.14"/>
    </edge>
    <edge id=":B_12" function="internal">
        <lane id=":B_12_0" index="0" speed="6.51" length="9.03" shape="643.08,354.01,-13.14 645.53,353.66,-13.14 647.28,352.61,-13.14 648.33,350.86,-13.14 648.68,348.41,-13.14"/>
    </edge>
    <edge id=":B_13" function="internal">
        <lane id=":B_13_0" index="0" speed="30.00" length="20.80" shape="643.08,354.01,-13.14 663.88,354.01,-13.14"/>
        <lane id=":B_13_1" index="1" speed="30.00" length="20.80" shape="643.08,357.21,-13.14 663.88,357.21,-13.14"/>
    </edge>
    <edge id=":B_15" function="internal">
        <lane id=":B_15_0" index="0" speed="9.26" length="5.01" shape="643.08,357.21,-13.14 648.05,357.91,-13.14"/>
    </edge>
    <edge id=":B_19" function="internal">
        <lane id=":B_19_0" index="0" speed="9.26" length="14.34" shape="648.05,357.91,-13.14 648.33,357.96,-13.14 652.08,360.21,-13.14 654.33,363.96,-13.14 655.08,369.21,-13.14"/>
    </edge>
    <edge id=":BA_0" function="internal">
        <lane id=":BA_0_0" index="0" speed="3.65" length="4.67" shape="655.08,683.00,-13.14 654.28,684.20,-13.14 653.48,684.60,-13.14 652.68,684.20,-13.14 651.88,683.00,-13.14"/>
    </edge>
    <edge id=":BB_0" function="internal">
        <lane id=":BB_0_0" index="0" speed="3.65" length="4.67" shape="977.68,357.21,-13.14 978.88,358.01,-13.14 979.28,358.81,-13.14 978.88,359.61,-13.14 977.68,360.41,-13.14"/>
    </edge>
    <edge id=":BC_0" function="internal">
        <lane id=":BC_0_0" index="0" speed="3.65" length="4.67" shape="651.88,34.61,-13.14 652.68,33.41,-13.14 653.48,33.01,-13.14 654.28,33.41,-13.14 655.08,34.61,-13.14"/>
    </edge>
    <edge id=":D_0" function="internal">
        <lane id=":D_0_0" index="0" speed="6.51" length="9.03" shape="159.84,369.21,-6.67 159.49,366.76,-6.67 158.44,365.01,-6.67 156.69,363.96,-6.67 154.24,363.61,-6.67"/>
    </edge>
    <edge id=":D_1" function="internal">
        <lane id=":D_1_0" index="0" speed="30.00" length="20.80" shape="159.84,369.21,-6.67 159.84,348.41,-6.67"/>
        <lane id=":D_1_1" index="1" speed="30.00" length="20.80" shape="163.04,369.21,-6.67 163.04,348.41,-6.67"/>
    </edge>
    <edge id=":D_3" function="internal">
        <lane id=":D_3_0" index="0" speed="9.26" length="5.01" shape="163.04,369.21,-6.67 163.75,364.24,-6.67"/>
    </edge>
    <edge id=":D_16" function="internal">
        <lane id=":D_16_0" index="0" speed="9.26" length="14.34" shape="163.75,364.24,-6.67 163.79,363.96,-6.67 166.04,360.21,-6.67 169.79,357.96,-6.67 175.04,357.21,-6.67"/>
    </edge>
    <edge id=":D_4" function="internal">
        <lane id=":D_4_0" index="0" speed="6.51" length="9.03" shape="175.04,363.61,-6.67 172.59,363.96,-6.67 170.84,365.01,-6.67 169.79,366.76,-6.67 169.44,369.21,-6.67"/>
    </edge>
    <edge id=":D_5" function="internal">
        <lane id=":D_5_0" index="0" speed="30.00" length="20.80" shape="175.04,363.61,-6.67 154.24,363.61,-6.67"/>
        <lane id=":D_5_1" index="1" speed="30.00" length="20.80" shape="175.04,360.41,-6.67 154.24,360.41,-6.67"/>
    </edge>
    <edge id=":D_7" function="internal">
        <lane id=":D_7_0" index="0" speed="9.26" length="5.01" shape="175.04,360.41,-6.67 170.08,359.70,-6.67"/>
    </edge>
    <edge id=":D_17" function="internal">
        <lane id=":D_17_0" index="0" speed="9.26" length="14.34" shape="170.08,359.70,-6.67 169.79,359.66,-6.67 166.04,357.41,-6.67 163.79,353.66,-6.67 163.04,348.41,-6.67"/>
    </edge>
    <edge id=":D_8" function="internal">
        <lane id=":D_8_0" index="0" speed="6.51" length="9.03" shape="169.44,348.41,-6.67 169.79,350.86,-6.67 170.84,352.61,-6.67 172.59,353.66,-6.67 175.04,354.01,-6.67"/>
    </edge>
    <edge id=":D_9" function="internal">
        <lane id=":D_9_0" index="0" speed="30.00" length="20.80" shape="169.44,348.41,-6.67 169.44,369.21,-6.67"/>
        <lane id=":D_9_1" index="1" speed="30.00" length="20.80" shape="166.24,348.41,-6.67 166.24,369.21,-6.67"/>
    </edge>
    <edge id=":D_11" function="internal">
        <lane id=":D_11_0" index="0" speed="9.26" length="5.01" shape="166.24,348.41,-6.67 165.53,353.37,-6.67"/>
    </edge>
    <edge id=":D_18" function="internal">
        <lane id=":D_18_0" index="0" speed="9.26" length="14.34" shape="165.53,353.37,-6.67 165.49,353.66,-6.67 163.24,357.41,-6.67 159.49,359.66,-6.67 154.24,360.41,-6.67"/>
    </edge>
    <edge id=":D_12" function="internal">
        <lane id=":D_12_0" index="0" speed="6.51" length="9.03" shape="154.24,354.01,-6.67 156.69,353.66,-6.67 158.44,352.61,-6.67 159.49,350.86,-6.67 159.84,348.41,-6.67"/>
    </edge>
    <edge id=":D_13" function="internal">
        <lane id=":D_13_0" index="0" speed="30.00" length="20.80" shape="154.24,354.01,-6.67 175.04,354.01,-6.67"/>
        <lane id=":D_13_1" index="1" speed="30.00" length="20.80" shape="154.24,357.21,-6.67 175.04,357.21,-6.67"/>
    </edge>
    <edge id=":D_15" function="internal">
        <lane id=":D_15_0" index="0" speed="9.26" length="5.01" shape="154.24,357.21,-6.67 159.21,357.91,-6.67"/>
    </edge>
    <edge id=":D_19" function="internal">
        <lane id=":D_19_0" index="0" speed="9.26" length="14.34" shape="159.21,357.91,-6.67 159.49,357.96,-6.67 163.24,360.21,-6.67 165.49,363.96,-6.67 166.24,369.21,-6.67"/>
    </edge>
    <edge id=":DA_0" function="internal">
        <lane id=":DA_0_0" index="0" speed="3.65" length="4.67" shape="163.04,194.16,-6.67 163.84,192.96,-6.67 164.64,192.56,-6.67 165.44,192.96,-6.67 166.24,194.16,-6.67"/>
    </edge>
    <edge id=":DB_0" function="internal">
        <lane id=":DB_0_0" index="0" speed="3.65" length="4.67" shape="-0.00,360.41,-6.67 -1.20,359.61,-6.67 -1.60,358.81,-6.67 -1.20,358.01,-6.67 0.00,357.21,-6.67"/>
    </edge>
    <edge id=":DC_0" function="internal">
        <lane id=":DC_0_0" index="0" speed="3.65" length="4.67" shape="166.24,523.45,-6.67 165.44,524.65,-6.67 164.64,525.05,-6.67 163.84,524.65,-6.67 163.04,523.45,-6.67"/>
    </edge>
    <edge id=":TL_0" function="internal">
        <lane id=":TL_0_0" index="0" speed="6.51" length="9.03" shape="327.69,369.21 327.34,366.76 326.29,365.01 324.54,363.96 322.09,363.61"/>
    </edge>
    <edge id=":TL_1" function="internal">
        <lane id=":TL_1_0" index="0" speed="7.33" length="11.73" shape="339.69,363.61 335.84,363.96 333.09,365.01 331.44,366.76 330.89,369.21"/>
    </edge>
    <edge id=":TL_2" function="internal">
        <lane id=":TL_2_0" index="0" speed="30.00" length="17.60" shape="339.69,363.61 322.09,363.61"/>
        <lane id=":TL_2_1" index="1" speed="30.00" length="17.60" shape="339.69,360.41 322.09,360.41"/>
    </edge>
    <edge id=":TL_4" function="internal">
        <lane id=":TL_4_0" index="0" speed="6.51" length="9.03" shape="334.09,348.41 334.44,350.86 335.49,352.61 337.24,353.66 339.69,354.01"/>
    </edge>
    <edge id=":TL_5" function="internal">
        <lane id=":TL_5_0" index="0" speed="25.00" length="20.94" shape="334.09,348.41 333.59,355.17 332.49,360.68 331.39,365.25 330.89,369.21"/>
        <lane id=":TL_5_1" index="1" speed="25.00" length="20.94" shape="330.89,348.41 330.89,369.21"/>
    </edge>
    <edge id=":TL_7" function="internal">
        <lane id=":TL_7_0" index="0" speed="8.67" length="16.85" shape="330.89,348.41 330.34,353.66 328.69,357.41 325.94,359.66 322.09,360.41"/>
    </edge>
    <edge id=":TL_8" function="internal">
        <lane id=":TL_8_0" index="0" speed="30.00" length="17.60" shape="322.09,354.01 339.69,354.01"/>
        <lane id=":TL_8_1" index="1" speed="30.00" length="17.60" shape="322.09,357.21 339.69,357.21"/>
    </edge>
    <edge id=":TL_10" function="internal">
        <lane id=":TL_10_0" index="0" speed="8.67" length="3.71" shape="322.09,357.21 325.73,357.92"/>
    </edge>
    <edge id=":TL_11" function="internal">
        <lane id=":TL_11_0" index="0" speed="8.67" length="13.14" shape="325.73,357.92 325.94,357.96 328.69,360.21 330.34,363.96 330.89,369.21"/>
    </edge>

    <edge id="A2AA" from="A" to="AA" priority="-1">
        <lane id="A2AA_0" index="0" speed="25.00" length="314.01" shape="322.09,681.61,10.08 8.08,681.61,10.08"/>
    </edge>
    <edge id="A2AB" from="A" to="AB" priority="-1">
        <lane id="A2AB_0" index="0" speed="25.00" length="314.01" shape="330.89,687.21,10.08 330.89,1001.22,10.08"/>
    </edge>
    <edge id="A2AC" from="A" to="AC" priority="-1">
        <lane id="A2AC_0" index="0" speed="25.00" length="314.01" shape="336.49,678.41,10.08 650.49,678.41,10.08"/>
    </edge>
    <edge id="A2TL" from="A" to="TL" priority="-1">
        <lane id="A2TL_0" index="0" speed="25.00" length="303.78" shape="327.69,672.81,10.08 327.69,369.21"/>
    </edge>
    <edge id="AA2A" from="AA" to="A" priority="-1">
        <lane id="AA2A_0" index="0" speed="25.00" length="314.01" shape="8.08,678.41,10.08 322.09,678.41,10.08"/>
    </edge>
    <edge id="AB2A" from="AB" to="A" priority="-1">
        <lane id="AB2A_0" index="0" speed="25.00" length="314.01" shape="327.69,1001.22,10.08 327.69,687.21,10.08"/>
    </edge>
    <edge id="AC2A" from="AC" to="A" priority="-1">
        <lane id="AC2A_0" index="0" speed="25.00" length="314.01" shape="650.49,681.61,10.08 336.49,681.61,10.08"/>
    </edge>
    <edge id="B2BA" from="B" to="BA" priority="-1">
        <lane id="B2BA_0" index="0" speed="30.00" length="313.80" shape="658.28,369.21,-13.14 658.28,683.00,-13.14"/>
        <lane id="B2BA_1" index="1" speed="30.00" length="313.80" shape="655.08,369.21,-13.14 655.08,683.00,-13.14"/>
    </edge>
    <edge id="B2BB" from="B" to="BB" priority="-1">
        <lane id="B2BB_0" index="0" speed="30.00" length="313.80" shape="663.88,354.01,-13.14 977.68,354.01,-13.14"/>
        <lane id="B2BB_1" index="1" speed="30.00" length="313.80" shape="663.88,357.21,-13.14 977.68,357.21,-13.14"/>
    </edge>
    <edge id="B2BC" from="B" to="BC" priority="-1">
        <lane id="B2BC_0" index="0" speed="30.00" length="313.80" shape="648.68,348.41,-13.14 648.68,34.61,-13.14"/>
        <lane id="B2BC_1" index="1" speed="30.00" length="313.80" shape="651.88,348.41,-13.14 651.88,34.61,-13.14"/>
    </edge>
    <edge id="B2TL" from="B" to="TL" priority="-1">
        <lane id="B2TL_0" index="0" speed="30.00" length="303.68" shape="643.08,363.61,-13.14 339.69,363.61"/>
        <lane id="B2TL_1" index="1" speed="30.00" length="303.68" shape="643.08,360.41,-13.14 339.69,360.41"/>
    </edge>
    <edge id="BA2B" from="BA" to="B" priority="-1">
        <lane id="BA2B_0" index="0" speed="30.00" length="313.80" shape="648.68,683.00,-13.14 648.68,369.21,-13.14"/>
        <lane id="BA2B_1" index="1" speed="30.00" length="313.80" shape="651.88,683.00,-13.14 651.88,369.21,-13.14"/>
    </edge>
    <edge id="BB2B" from="BB" to="B" priority="-1">
        <lane id="BB2B_0" index="0" speed="30.00" length="313.80" shape="977.68,363.61,-13.14 663.88,363.61,-13.14"/>
        <lane id="BB2B_1" index="1" speed="30.00" length="313.80" shape="977.68,360.41,-13.14 663.88,360.41,-13.14"/>
    </edge>
    <edge id="BC2B" from="BC" to="B" priority="-1">
        <lane id="BC2B_0" index="0" speed="30.00" length="313.80" shape="658.28,34.61,-13.14 658.28,348.41,-13.14"/>
        <lane id="BC2B_1" index="1" speed="30.00" length="313.80" shape="655.08,34.61,-13.14 655.08,348.41,-13.14"/>
    </edge>
    <edge id="C2CA" from="C" to="CA" priority="-1">
        <lane id="C2CA_0" index="0" speed="25.00" length="171.50" shape="337.19,174.60,6.72 508.69,174.60,6.72"/>
        <lane id="C2CA_1" index="1" speed="25.00" length="171.50" shape="337.19,177.80,6.72 508.69,177.80,6.72"/>
    </edge>
    <edge id="C2CB" from="C" to="CB" priority="-1">
        <lane id="C2CB_0" index="0" speed="25.00" length="171.50" shape="324.49,171.50,6.72 324.49,-0.00,6.72"/>
        <lane id="C2CB_1" index="1" speed="25.00" length="171.50" shape="327.69,171.50,6.72 327.69,-0.00,6.72"/>
    </edge>
    <edge id="C2CC" from="C" to="CC" priority="-1">
        <lane id="C2CC_0" index="0" speed="25.00" length="171.50" shape="321.39,184.20,6.72 149.88,184.20,6.72"/>
        <lane id="C2CC_1" index="1" speed="25.00" length="171.50" shape="321.39,181.00,6.72 149.88,181.00,6.72"/>
    </edge>
    <edge id="C2TL" from="C" to="TL" priority="-1">
        <lane id="C2TL_0" index="0" speed="25.00" length="161.24" shape="334.09,187.30,6.72 334.09,348.41"/>
        <lane id="C2TL_1" index="1" speed="25.00" length="161.24" shape="330.89,187.30,6.72 330.89,348.41"/>
    </edge>
    <edge id="D2DA" from="D" to="DA" priority="-1">
        <lane id="D2DA_0" index="0" speed="30.00" length="154.24" shape="159.84,348.41,-6.67 159.84,194.16,-6.67"/>
        <lane id="D2DA_1" index="1" speed="30.00" length="154.24" shape="163.04,348.41,-6.67 163.04,194.16,-6.67"/>
    </edge>
    <edge id="D2DB" from="D" to="DB" priority="-1">
        <lane id="D2DB_0" index="0" speed="30.00" length="154.24" shape="154.24,363.61,-6.67 -0.00,363.61,-6.67"/>
        <lane id="D2DB_1" index="1" speed="30.00" length="154.24" shape="154.24,360.41,-6.67 -0.00,360.41,-6.67"/>
    </edge>
    <edge id="D2DC" from="D" to="DC" priority="-1">
        <lane id="D2DC_0" index="0" speed="30.00" length="154.24" shape="169.44,369.21,-6.67 169.44,523.45,-6.67"/>
        <lane id="D2DC_1" index="1" speed="30.00" length="154.24" shape="166.24,369.21,-6.67 166.24,523.45,-6.67"/>
    </edge>
    <edge id="D2TL" from="D" to="TL" priority="-1">
        <lane id="D2TL_0" index="0" speed="30.00" length="147.19" shape="175.04,354.01,-6.67 322.09,354.01"/>
        <lane id="D2TL_1" index="1" speed="30.00" length="147.19" shape="175.04,357.21,-6.67 322.09,357.21"/>
    </edge>
    <edge id="DA2D" from="DA" to="D" priority="-1">
        <lane id="DA2D_0" index="0" speed="30.00" length="154.24" shape="169.44,194.16,-6.67 169.44,348.41,-6.67"/>
        <lane id="DA2D_1" index="1" speed="30.00" length="154.24" shape="166.24,194.16,-6.67 166.24,348.41,-6.67"/>
    </edge>
    <edge id="DB2D" from="DB" to="D" priority="-1">
        <lane id="DB2D_0" index="0" speed="30.00" length="154.24" shape="0.00,354.01,-6.67 154.24,354.01,-6.67"/>
        <lane id="DB2D_1" index="1" speed="30.00" length="154.24" shape="0.00,357.21,-6.67 154.24,357.21,-6.67"/>
    </edge>
    <edge id="DC2D" from="DC" to="D" priority="-1">
        <lane id="DC2D_0" index="0" speed="30.00" length="154.24" shape="159.84,523.45,-6.67 159.84,369.21,-6.67"/>
        <lane id="DC2D_1" index="1" speed="30.00" length="154.24" shape="163.04,523.45,-6.67 163.04,369.21,-6.67"/>
    </edge>
    <edge id="TL2A" from="TL" to="A" priority="-1">
        <lane id="TL2A_0" index="0" speed="25.00" length="303.78" shape="330.89,369.21 330.89,672.81,10.08"/>
    </edge>
    <edge id="TL2B" from="TL" to="B" priority="-1">
        <lane id="TL2B_0" index="0" speed="30.00" length="303.68" shape="339.69,354.01 643.08,354.01,-13.14"/>
        <lane id="TL2B_1" index="1" speed="30.00" length="303.68" shape="339.69,357.21 643.08,357.21,-13.14"/>
    </edge>
    <edge id="TL2D" from="TL" to="D" priority="-1">
        <lane id="TL2D_0" index="0" speed="30.00" length="147.19" shape="322.09,363.61 175.04,363.61,-6.67"/>
        <lane id="TL2D_1" index="1" speed="30.00" length="147.19" shape="322.09,360.41 175.04,360.41,-6.67"/>
    </edge>

    <tlLogic id="A" type="static" programID="0" offset="0">
        <phase duration="40" state="GGrrGGrr"/>
        <phase duration="5"  state="yyrryyrr"/>
        <phase duration="40" state="rrGGrrGG"/>
        <phase duration="5"  state="rryyrryy"/>
    </tlLogic>
    <tlLogic id="AA" type="static" programID="0" offset="0">
        <phase duration="80" state="G"/>
        <phase duration="5"  state="y"/>
        <phase duration="5"  state="r"/>
    </tlLogic>
    <tlLogic id="AB" type="static" programID="0" offset="0">
        <phase duration="80" state="G"/>
        <phase duration="5"  state="y"/>
        <phase duration="5"  state="r"/>
    </tlLogic>
    <tlLogic id="AC" type="static" programID="0" offset="0">
        <phase duration="80" state="G"/>
        <phase duration="5"  state="y"/>
        <phase duration="5"  state="r"/>
    </tlLogic>
    <tlLogic id="B" type="static" programID="0" offset="0">
        <phase duration="39" state="GGGgrrrrGGGgrrrr"/>
        <phase duration="6"  state="yyyyrrrryyyyrrrr"/>
        <phase duration="39" state="rrrrGGGgrrrrGGGg"/>
        <phase duration="6"  state="rrrryyyyrrrryyyy"/>
    </tlLogic>
    <tlLogic id="BA" type="static" programID="0" offset="0">
        <phase duration="79" state="G"/>
        <phase duration="6"  state="y"/>
        <phase duration="5"  state="r"/>
    </tlLogic>
    <tlLogic id="BB" type="static" programID="0" offset="0">
        <phase duration="79" state="G"/>
        <phase duration="6"  state="y"/>
        <phase duration="5"  state="r"/>
    </tlLogic>
    <tlLogic id="BC" type="static" programID="0" offset="0">
        <phase duration="79" state="G"/>
        <phase duration="6"  state="y"/>
        <phase duration="5"  state="r"/>
    </tlLogic>
    <tlLogic id="D" type="static" programID="0" offset="0">
        <phase duration="39" state="GGGgrrrrGGGgrrrr"/>
        <phase duration="6"  state="yyyyrrrryyyyrrrr"/>
        <phase duration="39" state="rrrrGGGgrrrrGGGg"/>
        <phase duration="6"  state="rrrryyyyrrrryyyy"/>
    </tlLogic>
    <tlLogic id="DA" type="static" programID="0" offset="0">
        <phase duration="79" state="G"/>
        <phase duration="6"  state="y"/>
        <phase duration="5"  state="r"/>
    </tlLogic>
    <tlLogic id="DB" type="static" programID="0" offset="0">
        <phase duration="79" state="G"/>
        <phase duration="6"  state="y"/>
        <phase duration="5"  state="r"/>
    </tlLogic>
    <tlLogic id="DC" type="static" programID="0" offset="0">
        <phase duration="79" state="G"/>
        <phase duration="6"  state="y"/>
        <phase duration="5"  state="r"/>
    </tlLogic>
    <tlLogic id="TL" type="static" programID="0" offset="0">
        <phase duration="39" state="sGGGsrrrGGg"/>
        <phase duration="6"  state="syyysrrryyy"/>
        <phase duration="39" state="GsrrGgGgrrr"/>
        <phase duration="6"  state="ysrryyyyrrr"/>
    </tlLogic>

    <junction id="A" type="traffic_light" x="329.29" y="680.01" z="10.08" incLanes="AB2A_0 AC2A_0 TL2A_0 AA2A_0" intLanes=":A_0_0 :A_1_0 :A_2_0 :A_3_0 :A_4_0 :A_5_0 :A_6_0 :A_7_0" shape="326.09,687.21,10.08 332.49,687.21,10.08 332.93,684.99,10.08 333.49,684.21,10.08 334.26,683.66,10.08 335.26,683.32,10.08 336.49,683.21,10.08 336.49,676.81,10.08 334.26,676.37,10.08 333.49,675.81,10.08 332.93,675.04,10.08 332.60,674.04,10.08 332.49,672.81,10.08 326.09,672.81,10.08 325.64,675.04,10.08 325.09,675.81,10.08 324.31,676.37,10.08 323.31,676.70,10.08 322.09,676.81,10.08 322.09,683.21,10.08 324.31,683.66,10.08 325.09,684.21,10.08 325.64,684.99,10.08 325.97,685.99,10.08">
        <request index="0" response="00000000" foes="00001000" cont="0"/>
        <request index="1" response="00000000" foes="11001000" cont="0"/>
        <request index="2" response="00100000" foes="00100000" cont="0"/>
        <request index="3" response="00100011" foes="00100011" cont="0"/>
        <request index="4" response="00000000" foes="10000000" cont="0"/>
        <request index="5" response="00000000" foes="10001100" cont="0"/>
        <request index="6" response="00000010" foes="00000010" cont="0"/>
        <request index="7" response="00110010" foes="00110010" cont="0"/>
    </junction>
    <junction id="AA" type="traffic_light" x="8.08" y="680.01" z="10.08" incLanes="A2AA_0" intLanes=":AA_0_0" shape="8.08,680.01,10.08 8.08,683.21,10.08 8.08,680.01,10.08">
        <request index="0" response="0" foes="0" cont="0"/>
    </junction>
    <junction id="AB" type="traffic_light" x="329.29" y="1001.22" z="10.08" incLanes="A2AB_0" intLanes=":AB_0_0" shape="329.29,1001.22,10.08 332.49,1001.22,10.08 329.29,1001.22,10.08">
        <request index="0" response="0" foes="0" cont="0"/>
    </junction>
    <junction id="AC" type="traffic_light" x="650.49" y="680.01" z="10.08" incLanes="A2AC_0" intLanes=":AC_0_0" shape="650.49,680.01,10.08 650.49,676.81,10.08 650.49,680.01,10.08">
        <request index="0" response="0" foes="0" cont="0"/>
    </junction>
    <junction id="B" type="traffic_light" x="653.48" y="358.81" z="-13.14" incLanes="BA2B_0 BA2B_1 BB2B_0 BB2B_1 BC2B_0 BC2B_1 TL2B_0 TL2B_1" intLanes=":B_0_0 :B_1_0 :B_1_1 :B_16_0 :B_4_0 :B_5_0 :B_5_1 :B_17_0 :B_8_0 :B_9_0 :B_9_1 :B_18_0 :B_12_0 :B_13_0 :B_13_1 :B_19_0" shape="647.08,369.21,-13.14 659.88,369.21,-13.14 660.33,366.98,-13.14 660.88,366.21,-13.14 661.66,365.65,-13.14 662.66,365.32,-13.14 663.88,365.21,-13.14 663.88,352.41,-13.14 661.66,351.96,-13.14 660.88,351.41,-13.14 660.33,350.63,-13.14 659.99,349.63,-13.14 659.88,348.41,-13.14 647.08,348.41,-13.14 646.64,350.63,-13.14 646.08,351.41,-13.14 645.30,351.96,-13.14 644.30,352.29,-13.14 643.08,352.41,-13.14 643.08,365.21,-13.14 645.30,365.65,-13.14 646.08,366.21,-13.14 646.64,366.98,-13.14 646.97,367.98,-13.14">
        <request index="0"  response="0000000000000000" foes="0000000001100000" cont="0"/>
        <request index="1"  response="1000000010000000" foes="1111100011100000" cont="0"/>
        <request index="2"  response="1000000010000000" foes="1111100011100000" cont="0"/>
        <request index="3"  response="1000011010000000" foes="1110011011100000" cont="1"/>
        <request index="4"  response="0000011000000000" foes="0000011000000000" cont="0"/>
        <request index="5"  response="0000111000001111" foes="1000111000001111" cont="0"/>
        <request index="6"  response="0000111000001111" foes="1000111000001111" cont="0"/>
        <request index="7"  response="0110111000001110" foes="0110111000001110" cont="1"/>
        <request index="8"  response="0000000000000000" foes="0110000000000000" cont="0"/>
        <request index="9"  response="1000000010000000" foes="1110000011111000" cont="0"/>
        <request index="10" response="1000000010000000" foes="1110000011111000" cont="0"/>
        <request index="11" response="1000000010000110" foes="1110000011100110" cont="1"/>
        <request index="12" response="0000000000000110" foes="0000000000000110" cont="0"/>
        <request index="13" response="0000111100001110" foes="0000111110001110" cont="0"/>
        <request index="14" response="0000111100001110" foes="0000111110001110" cont="0"/>
        <request index="15" response="0000111001101110" foes="0000111001101110" cont="1"/>
    </junction>
    <junction id="BA" type="traffic_light" x="653.48" y="683.00" z="-13.14" incLanes="B2BA_0 B2BA_1" intLanes=":BA_0_0" shape="653.48,683.00,-13.14 659.88,683.00,-13.14 653.48,683.00,-13.14">
        <request index="0" response="0" foes="0" cont="0"/>
    </junction>
    <junction id="BB" type="traffic_light" x="977.68" y="358.81" z="-13.14" incLanes="B2BB_0 B2BB_1" intLanes=":BB_0_0" shape="977.68,358.81,-13.14 977.68,352.41,-13.14 977.68,358.81,-13.14">
        <request index="0" response="0" foes="0" cont="0"/>
    </junction>
    <junction id="BC" type="traffic_light" x="653.48" y="34.61" z="-13.14" incLanes="B2BC_0 B2BC_1" intLanes=":BC_0_0" shape="653.48,34.61,-13.14 647.08,34.61,-13.14 653.48,34.61,-13.14">
        <request index="0" response="0" foes="0" cont="0"/>
    </junction>