<?xml version="1.0" encoding="UTF-8"?>

<!-- generated on 2022-10-11 16:45:13 by Eclipse SUMO netconvert Version 1.14.1
<configuration xmlns:xsi="http://www.w3.org/2001/XMLSchema-instance" xsi:noNamespaceSchemaLocation="http://sumo.dlr.de/xsd/netconvertConfiguration.xsd">

    <input>
        <node-files value="../data/salt-lake-city/nodes.nod.xml"/>
        <edge-files value="../data/salt-lake-city/edges.edg.xml"/>
        <connection-files value="../data/salt-lake-city/connections.con.xml"/>
    </input>

    <output>
        <output-file value="../data/salt-lake-city/sumo/net/135.net.xml"/>
    </output>

    <tls_building>
        <tls.minor-left.max-speed value="1"/>
    </tls_building>

    <report>
        <verbose value="true"/>
    </report>

</configuration>
-->

<net version="1.9" junctionCornerDetail="5" limitTurnSpeed="5.50" xmlns:xsi="http://www.w3.org/2001/XMLSchema-instance" xsi:noNamespaceSchemaLocation="http://sumo.dlr.de/xsd/net_file.xsd">

    <location netOffset="724.62,1449.24" convBoundary="0.00,0.00,1449.24,2034.89" origBoundary="-724.62,-1449.24,724.62,585.65" projParameter="!"/>

    <edge id=":A_0" function="internal">
        <lane id=":A_0_0" index="0" speed="8.10" length="14.57" shape="719.82,1758.87,-7.23 719.07,1756.42,-7.23 716.82,1754.67,-7.23 713.07,1753.62,-7.23 707.82,1753.27,-7.23"/>
    </edge>
    <edge id=":A_1" function="internal">
        <lane id=":A_1_0" index="0" speed="30.00" length="34.33" shape="719.82,1758.87,-7.23 718.82,1751.80,-7.23 716.62,1744.73,-7.23 714.42,1736.33,-7.23 713.42,1725.27,-7.23"/>
        <lane id=":A_1_1" index="1" speed="30.00" length="34.33" shape="723.02,1758.87,-7.23 722.02,1751.80,-7.23 719.82,1744.73,-7.23 717.62,1736.33,-7.23 716.62,1725.27,-7.23"/>
    </edge>
    <edge id=":A_3" function="internal">
        <lane id=":A_3_0" index="0" speed="11.36" length="15.40" shape="723.02,1758.87,-7.23 724.17,1750.82,-7.23 727.62,1745.07,-7.23 728.11,1744.78,-7.23"/>
    </edge>
    <edge id=":A_16" function="internal">
        <lane id=":A_16_0" index="0" speed="11.36" length="14.27" shape="728.11,1744.78,-7.23 733.37,1741.62,-7.23 741.42,1740.47,-7.23"/>
    </edge>
    <edge id=":A_4" function="internal">
        <lane id=":A_4_0" index="0" speed="8.10" length="14.57" shape="741.42,1746.87,-7.23 738.97,1747.62,-7.23 737.22,1749.87,-7.23 736.17,1753.62,-7.23 735.82,1758.87,-7.23"/>
    </edge>
    <edge id=":A_5" function="internal">
        <lane id=":A_5_0" index="0" speed="30.00" length="34.33" shape="741.42,1746.87,-7.23 734.36,1747.87,-7.23 727.29,1750.07,-7.23 718.88,1752.27,-7.23 707.82,1753.27,-7.23"/>
        <lane id=":A_5_1" index="1" speed="30.00" length="34.33" shape="741.42,1743.67,-7.23 734.36,1744.67,-7.23 727.29,1746.87,-7.23 718.88,1749.07,-7.23 707.82,1750.07,-7.23"/>
    </edge>
    <edge id=":A_7" function="internal">
        <lane id=":A_7_0" index="0" speed="11.36" length="15.40" shape="741.42,1743.67,-7.23 733.37,1742.52,-7.23 727.62,1739.07,-7.23 727.33,1738.58,-7.23"/>
    </edge>
    <edge id=":A_17" function="internal">
        <lane id=":A_17_0" index="0" speed="11.36" length="14.27" shape="727.33,1738.58,-7.23 724.17,1733.32,-7.23 723.02,1725.27,-7.23"/>
    </edge>
    <edge id=":A_8" function="internal">
        <lane id=":A_8_0" index="0" speed="8.10" length="14.57" shape="729.42,1725.27,-7.23 730.17,1727.72,-7.23 732.42,1729.47,-7.23 736.17,1730.52,-7.23 741.42,1730.87,-7.23"/>
    </edge>
    <edge id=":A_9" function="internal">
        <lane id=":A_9_0" index="0" speed="30.00" length="34.33" shape="729.42,1725.27,-7.23 730.42,1732.33,-7.23 732.62,1739.40,-7.23 734.82,1747.81,-7.23 735.82,1758.87,-7.23"/>
        <lane id=":A_9_1" index="1" speed="30.00" length="34.33" shape="726.22,1725.27,-7.23 727.22,1732.33,-7.23 729.42,1739.40,-7.23 731.62,1747.81,-7.23 732.62,1758.87,-7.23"/>
    </edge>
    <edge id=":A_11" function="internal">
        <lane id=":A_11_0" index="0" speed="11.36" length="15.40" shape="726.22,1725.27,-7.23 725.07,1733.32,-7.23 721.62,1739.07,-7.23 721.14,1739.36,-7.23"/>
    </edge>
    <edge id=":A_18" function="internal">
        <lane id=":A_18_0" index="0" speed="11.36" length="14.27" shape="721.14,1739.36,-7.23 715.87,1742.52,-7.23 707.82,1743.67,-7.23"/>
    </edge>
    <edge id=":A_12" function="internal">
        <lane id=":A_12_0" index="0" speed="8.10" length="14.57" shape="707.82,1737.27,-7.23 710.27,1736.52,-7.23 712.02,1734.27,-7.23 713.07,1730.52,-7.23 713.42,1725.27,-7.23"/>
    </edge>
    <edge id=":A_13" function="internal">
        <lane id=":A_13_0" index="0" speed="30.00" length="34.33" shape="707.82,1737.27,-7.23 714.89,1736.27,-7.23 721.96,1734.07,-7.23 730.36,1731.87,-7.23 741.42,1730.87,-7.23"/>
        <lane id=":A_13_1" index="1" speed="30.00" length="34.33" shape="707.82,1740.47,-7.23 714.89,1739.47,-7.23 721.96,1737.27,-7.23 730.36,1735.07,-7.23 741.42,1734.07,-7.23"/>
    </edge>
    <edge id=":A_15" function="internal">
        <lane id=":A_15_0" index="0" speed="11.36" length="15.40" shape="707.82,1740.47,-7.23 715.87,1741.62,-7.23 721.62,1745.07,-7.23 721.91,1745.55,-7.23"/>
    </edge>
    <edge id=":A_19" function="internal">
        <lane id=":A_19_0" index="0" speed="11.36" length="14.27" shape="721.91,1745.55,-7.23 725.07,1750.82,-7.23 726.22,1758.87,-7.23"/>
    </edge>
    <edge id=":AA_0" function="internal">
        <lane id=":AA_0_0" index="0" speed="3.65" length="4.67" shape="431.80,1743.67,-7.23 430.60,1742.87,-7.23 430.20,1742.07,-7.23 430.60,1741.27,-7.23 431.80,1740.47,-7.23"/>
    </edge>
    <edge id=":AB_0" function="internal">
        <lane id=":AB_0_0" index="0" speed="3.65" length="4.67" shape="726.22,2034.89,-7.23 725.42,2036.09,-7.23 724.62,2036.49,-7.23 723.82,2036.09,-7.23 723.02,2034.89,-7.23"/>
    </edge>
    <edge id=":AC_0" function="internal">
        <lane id=":AC_0_0" index="0" speed="3.65" length="4.67" shape="1017.45,1740.47,-7.23 1018.65,1741.27,-7.23 1019.05,1742.07,-7.23 1018.65,1742.87,-7.23 1017.45,1743.67,-7.23"/>
    </edge>
    <edge id=":B_0" function="internal">
        <lane id=":B_0_0" index="0" speed="7.33" length="11.73" shape="945.75,1462.84,0.28 945.20,1460.39,0.27 943.55,1458.64,0.27 940.80,1457.59,0.26 936.95,1457.24,0.26"/>
    </edge>
    <edge id=":B_1" function="internal">
        <lane id=":B_1_0" index="0" speed="30.00" length="27.43" shape="945.75,1462.84,0.28 945.25,1456.30,0.28 944.15,1450.63,0.28 943.05,1444.27,0.28 942.55,1435.64,0.28"/>
        <lane id=":B_1_1" index="1" speed="30.00" length="27.43" shape="948.95,1462.84,0.28 948.45,1456.30,0.28 947.35,1450.63,0.28 946.25,1444.27,0.28 945.75,1435.64,0.28"/>
    </edge>
    <edge id=":B_3" function="internal">
        <lane id=":B_3_0" index="0" speed="10.36" length="10.84" shape="948.95,1462.84,0.28 949.90,1456.19,0.28 952.02,1452.66,0.28"/>
    </edge>
    <edge id=":B_16" function="internal">
        <lane id=":B_16_0" index="0" speed="10.36" length="13.67" shape="952.02,1452.66,0.28 952.75,1451.44,0.28 957.50,1448.59,0.28 964.15,1447.64,0.28"/>
    </edge>
    <edge id=":B_4" function="internal">
        <lane id=":B_4_0" index="0" speed="7.33" length="11.73" shape="964.15,1454.04,0.28 961.70,1454.59,0.28 959.95,1456.24,0.28 958.90,1458.99,0.28 958.55,1462.84,0.28"/>
    </edge>
    <edge id=":B_5" function="internal">
        <lane id=":B_5_0" index="0" speed="30.00" length="27.43" shape="964.15,1454.04,0.28 957.61,1454.54,0.27 951.94,1455.64,0.27 945.57,1456.74,0.26 936.95,1457.24,0.26"/>
        <lane id=":B_5_1" index="1" speed="30.00" length="27.43" shape="964.15,1450.84,0.28 957.61,1451.34,0.27 951.94,1452.44,0.27 945.57,1453.54,0.26 936.95,1454.04,0.26"/>
    </edge>
    <edge id=":B_7" function="internal">
        <lane id=":B_7_0" index="0" speed="10.36" length="10.84" shape="964.15,1450.84,0.28 957.50,1449.89,0.28 953.96,1447.77,0.28"/>
    </edge>
    <edge id=":B_17" function="internal">
        <lane id=":B_17_0" index="0" speed="10.36" length="13.67" shape="953.96,1447.77,0.28 952.75,1447.04,0.28 949.90,1442.29,0.28 948.95,1435.64,0.28"/>
    </edge>
    <edge id=":B_8" function="internal">
        <lane id=":B_8_0" index="0" speed="7.33" length="11.73" shape="955.35,1435.64,0.28 955.90,1438.09,0.28 957.55,1439.84,0.28 960.30,1440.89,0.28 964.15,1441.24,0.28"/>
    </edge>
    <edge id=":B_9" function="internal">
        <lane id=":B_9_0" index="0" speed="30.00" length="27.43" shape="955.35,1435.64,0.28 955.85,1442.19,0.28 956.95,1447.86,0.28 958.05,1454.22,0.28 958.55,1462.84,0.28"/>
        <lane id=":B_9_1" index="1" speed="30.00" length="27.43" shape="952.15,1435.64,0.28 952.65,1442.19,0.28 953.75,1447.86,0.28 954.85,1454.22,0.28 955.35,1462.84,0.28"/>
    </edge>
    <edge id=":B_11" function="internal">
        <lane id=":B_11_0" index="0" speed="10.36" length="10.84" shape="952.15,1435.64,0.28 951.20,1442.29,0.27 949.08,1445.83,0.27"/>
    </edge>
    <edge id=":B_18" function="internal">
        <lane id=":B_18_0" index="0" speed="10.36" length="13.67" shape="949.08,1445.83,0.27 948.35,1447.04,0.27 943.60,1449.89,0.26 936.95,1450.84,0.26"/>
    </edge>
    <edge id=":B_12" function="internal">
        <lane id=":B_12_0" index="0" speed="7.33" length="11.73" shape="936.95,1444.44,0.26 939.40,1443.89,0.26 941.15,1442.24,0.27 942.20,1439.49,0.27 942.55,1435.64,0.28"/>
    </edge>
    <edge id=":B_13" function="internal">
        <lane id=":B_13_0" index="0" speed="30.00" length="27.43" shape="936.95,1444.44,0.26 943.49,1443.94,0.26 949.17,1442.84,0.27 955.53,1441.74,0.27 964.15,1441.24,0.28"/>
        <lane id=":B_13_1" index="1" speed="30.00" length="27.43" shape="936.95,1447.64,0.26 943.49,1447.14,0.26 949.17,1446.04,0.27 955.53,1444.94,0.27 964.15,1444.44,0.28"/>
    </edge>
    <edge id=":B_15" function="internal">
        <lane id=":B_15_0" index="0" speed="10.36" length="10.84" shape="936.95,1447.64,0.26 943.60,1448.59,0.26 947.14,1450.72,0.27"/>
    </edge>
    <edge id=":B_19" function="internal">
        <lane id=":B_19_0" index="0" speed="10.36" length="13.67" shape="947.14,1450.72,0.27 948.35,1451.44,0.27 951.20,1456.19,0.27 952.15,1462.84,0.28"/>
    </edge>
    <edge id=":BA_0" function="internal">
        <lane id=":BA_0_0" index="0" speed="3.65" length="4.67" shape="952.15,1675.17,0.28 951.35,1676.37,0.28 950.55,1676.77,0.28 949.75,1676.37,0.28 948.95,1675.17,0.28"/>
    </edge>
    <edge id=":BB_0" function="internal">
        <lane id=":BB_0_0" index="0" speed="3.65" length="4.67" shape="1176.48,1447.64,0.28 1177.68,1448.44,0.28 1178.08,1449.24,0.28 1177.68,1450.04,0.28 1176.48,1450.84,0.28"/>
    </edge>
    <edge id=":BC_0" function="internal">
        <lane id=":BC_0_0" index="0" speed="3.65" length="4.67" shape="948.95,1223.32,0.28 949.75,1222.12,0.28 950.55,1221.72,0.28 951.35,1222.12,0.28 952.15,1223.32,0.28"/>
    </edge>
    <edge id=":C_0" function="internal">
        <lane id=":C_0_0" index="0" speed="6.51" length="9.03" shape="719.82,735.02,-12.19 719.47,732.57,-12.24 718.42,730.82,-12.28 716.67,729.77,-12.32 714.22,729.42,-12.37"/>
    </edge>
    <edge id=":C_1" function="internal">
        <lane id=":C_1_0" index="0" speed="30.00" length="20.80" shape="719.82,735.02,-12.19 719.82,714.22,-12.37"/>
        <lane id=":C_1_1" index="1" speed="30.00" length="20.80" shape="723.02,735.02,-12.19 723.02,714.22,-12.37"/>
    </edge>
    <edge id=":C_3" function="internal">
        <lane id=":C_3_0" index="0" speed="9.26" length="5.01" shape="723.02,735.02,-12.19 723.73,730.06,-12.24"/>
    </edge>
    <edge id=":C_16" function="internal">
        <lane id=":C_16_0" index="0" speed="9.26" length="14.34" shape="723.73,730.06,-12.24 723.77,729.77,-12.24 726.02,726.02,-12.28 729.77,723.77,-12.32 735.02,723.02,-12.37"/>
    </edge>
    <edge id=":C_4" function="internal">
        <lane id=":C_4_0" index="0" speed="6.51" length="9.03" shape="735.02,729.42,-12.37 732.57,729.77,-12.32 730.82,730.82,-12.28 729.77,732.57,-12.24 729.42,735.02,-12.19"/>
    </edge>
    <edge id=":C_5" function="internal">
        <lane id=":C_5_0" index="0" speed="30.00" length="20.80" shape="735.02,729.42,-12.37 714.22,729.42,-12.37"/>
        <lane id=":C_5_1" index="1" speed="30.00" length="20.80" shape="735.02,726.22,-12.37 714.22,726.22,-12.37"/>
    </edge>
    <edge id=":C_7" function="internal">
        <lane id=":C_7_0" index="0" speed="9.26" length="5.01" shape="735.02,726.22,-12.37 730.06,725.51,-12.37"/>
    </edge>
    <edge id=":C_17" function="internal">
        <lane id=":C_17_0" index="0" speed="9.26" length="14.34" shape="730.06,725.51,-12.37 729.77,725.47,-12.37 726.02,723.22,-12.37 723.77,719.47,-12.37 723.02,714.22,-12.37"/>
    </edge>
    <edge id=":C_8" function="internal">
        <lane id=":C_8_0" index="0" speed="6.51" length="9.03" shape="729.42,714.22,-12.37 729.77,716.67,-12.37 730.82,718.42,-12.37 732.57,719.47,-12.37 735.02,719.82,-12.37"/>
    </edge>
    <edge id=":C_9" function="internal">
        <lane id=":C_9_0" index="0" speed="30.00" length="20.80" shape="729.42,714.22,-12.37 729.42,735.02,-12.19"/>
        <lane id=":C_9_1" index="1" speed="30.00" length="20.80" shape="726.22,714.22,-12.37 726.22,735.02,-12.19"/>
    </edge>
    <edge id=":C_11" function="internal">
        <lane id=":C_11_0" index="0" speed="9.26" length="5.01" shape="726.22,714.22,-12.37 725.51,719.19,-12.37"/>
    </edge>
    <edge id=":C_18" function="internal">
        <lane id=":C_18_0" index="0" speed="9.26" length="14.34" shape="725.51,719.19,-12.37 725.47,719.47,-12.37 723.22,723.22,-12.37 719.47,725.47,-12.37 714.22,726.22,-12.37"/>
    </edge>
    <edge id=":C_12" function="internal">
        <lane id=":C_12_0" index="0" speed="6.51" length="9.03" shape="714.22,719.82,-12.37 716.67,719.47,-12.37 718.42,718.42,-12.37 719.47,716.67,-12.37 719.82,714.22,-12.37"/>
    </edge>
    <edge id=":C_13" function="internal">
        <lane id=":C_13_0" index="0" speed="30.00" length="20.80" shape="714.22,719.82,-12.37 735.02,719.82,-12.37"/>
        <lane id=":C_13_1" index="1" speed="30.00" length="20.80" shape="714.22,723.02,-12.37 735.02,723.02,-12.37"/>
    </edge>
    <edge id=":C_15" function="internal">
        <lane id=":C_15_0" index="0" speed="9.26" length="5.01" shape="714.22,723.02,-12.37 719.19,723.73,-12.32"/>
    </edge>
    <edge id=":C_19" function="internal">
        <lane id=":C_19_0" index="0" speed="9.26" length="14.34" shape="719.19,723.73,-12.32 719.47,723.77,-12.32 723.22,726.02,-12.28 725.47,729.77,-12.24 726.22,735.02,-12.19"/>
    </edge>
    <edge id=":CA_0" function="internal">
        <lane id=":CA_0_0" index="0" speed="3.65" length="4.67" shape="1449.24,723.02,-12.37 1450.44,723.82,-12.37 1450.84,724.62,-12.37 1450.44,725.42,-12.37 1449.24,726.22,-12.37"/>
    </edge>
    <edge id=":CB_0" function="internal">
        <lane id=":CB_0_0" index="0" speed="3.65" length="4.67" shape="723.02,-0.00,-12.37 723.82,-1.20,-12.37 724.62,-1.60,-12.37 725.42,-1.20,-12.37 726.22,0.00,-12.37"/>
    </edge>
    <edge id=":CC_0" function="internal">
        <lane id=":CC_0_0" index="0" speed="3.65" length="4.67" shape="-0.00,726.22,-12.37 -1.20,725.42,-12.37 -1.60,724.62,-12.37 -1.20,723.82,-12.37 0.00,723.02,-12.37"/>
    </edge>
    <edge id=":D_0" function="internal">
        <lane id=":D_0_0" index="0" speed="6.51" length="9.03" shape="384.89,1459.64 384.54,1457.19 383.49,1455.44 381.74,1454.39 379.29,1454.04"/>
    </edge>
    <edge id=":D_1" function="internal">
        <lane id=":D_1_0" index="0" speed="30.00" length="20.80" shape="384.89,1459.64 384.89,1438.84"/>
        <lane id=":D_1_1" index="1" speed="30.00" length="20.80" shape="388.09,1459.64 388.09,1438.84"/>
    </edge>
    <edge id=":D_3" function="internal">
        <lane id=":D_3_0" index="0" speed="9.26" length="5.01" shape="388.09,1459.64 388.80,1454.68"/>
    </edge>
    <edge id=":D_16" function="internal">
        <lane id=":D_16_0" index="0" speed="9.26" length="14.34" shape="388.80,1454.68 388.84,1454.39 391.09,1450.64 394.84,1448.39 400.09,1447.64"/>
    </edge>
    <edge id=":D_4" function="internal">
        <lane id=":D_4_0" index="0" speed="6.51" length="9.03" shape="400.09,1454.04 397.64,1454.39 395.89,1455.44 394.84,1457.19 394.49,1459.64"/>
    </edge>
    <edge id=":D_5" function="internal">
        <lane id=":D_5_0" index="0" speed="30.00" length="20.80" shape="400.09,1454.04 379.29,1454.04"/>
        <lane id=":D_5_1" index="1" speed="30.00" length="20.80" shape="400.09,1450.84 379.29,1450.84"/>
    </edge>
    <edge id=":D_7" function="internal">
        <lane id=":D_7_0" index="0" speed="9.26" length="5.01" shape="400.09,1450.84 395.13,1450.14"/>
    </edge>
    <edge id=":D_17" function="internal">
        <lane id=":D_17_0" index="0" speed="9.26" length="14.34" shape="395.13,1450.14 394.84,1450.09 391.09,1447.84 388.84,1444.09 388.09,1438.84"/>
    </edge>
    <edge id=":D_8" function="internal">
        <lane id=":D_8_0" index="0" speed="6.51" length="9.03" shape="394.49,1438.84 394.84,1441.29 395.89,1443.04 397.64,1444.09 400.09,1444.44"/>
    </edge>
    <edge id=":D_9" function="internal">
        <lane id=":D_9_0" index="0" speed="30.00" length="20.80" shape="394.49,1438.84 394.49,1459.64"/>
        <lane id=":D_9_1" index="1" speed="30.00" length="20.80" shape="391.29,1438.84 391.29,1459.64"/>
    </edge>
    <edge id=":D_11" function="internal">
        <lane id=":D_11_0" index="0" speed="9.26" length="5.01" shape="391.29,1438.84 390.58,1443.81"/>
    </edge>
    <edge id=":D_18" function="internal">
        <lane id=":D_18_0" index="0" speed="9.26" length="14.34" shape="390.58,1443.81 390.54,1444.09 388.29,1447.84 384.54,1450.09 379.29,1450.84"/>
    </edge>
    <edge id=":D_12" function="internal">
        <lane id=":D_12_0" index="0" speed="6.51" length="9.03" shape="379.29,1444.44 381.74,1444.09 383.49,1443.04 384.54,1441.29 384.89,1438.84"/>
    </edge>
    <edge id=":D_13" function="internal">
        <lane id=":D_13_0" index="0" speed="30.00" length="20.80" shape="379.29,1444.44 400.09,1444.44"/>
        <lane id=":D_13_1" index="1" speed="30.00" length="20.80" shape="379.29,1447.64 400.09,1447.64"/>
    </edge>
    <edge id=":D_15" function="internal">
        <lane id=":D_15_0" index="0" speed="9.26" length="5.01" shape="379.29,1447.64 384.25,1448.35"/>
    </edge>
    <edge id=":D_19" function="internal">
        <lane id=":D_19_0" index="0" speed="9.26" length="14.34" shape="384.25,1448.35 384.54,1448.39 388.29,1450.64 390.54,1454.39 391.29,1459.64"/>
    </edge>
    <edge id=":DA_0" function="internal">
        <lane id=":DA_0_0" index="0" speed="3.65" length="4.67" shape="388.09,1114.31 388.89,1113.11 389.69,1112.71 390.49,1113.11 391.29,1114.31"/>
    </edge>
    <edge id=":DB_0" function="internal">
        <lane id=":DB_0_0" index="0" speed="3.65" length="4.67" shape="54.76,1450.84 53.56,1450.04 53.16,1449.24 53.56,1448.44 54.76,1447.64"/>
    </edge>
    <edge id=":DC_0" function="internal">
        <lane id=":DC_0_0" index="0" speed="3.65" length="4.67" shape="391.29,1784.18 390.49,1785.38 389.69,1785.78 388.89,1785.38 388.09,1784.18"/>
    </edge>
    <edge id=":TL_0" function="internal">
        <lane id=":TL_0_0" index="0" speed="7.33" length="11.73" shape="713.42,1462.84 713.07,1458.99 712.02,1456.24 710.27,1454.59 707.82,1454.04"/>
    </edge>
    <edge id=":TL_1" function="internal">
        <lane id=":TL_1_0" index="0" speed="30.00" length="24.27" shape="716.62,1462.84 717.12,1455.39,-0.05 718.22,1450.05,-0.09 719.32,1445.11,-0.13 719.82,1438.84,-0.18"/>
        <lane id=":TL_1_1" index="1" speed="30.00" length="24.27" shape="719.82,1462.84 720.32,1455.39,-0.05 721.42,1450.05,-0.09 722.52,1445.11,-0.13 723.02,1438.84,-0.18"/>
    </edge>
    <edge id=":TL_3" function="internal">
        <lane id=":TL_3_0" index="0" speed="9.84" length="6.30" shape="723.02,1462.84 723.73,1456.59,0.00"/>
    </edge>
    <edge id=":TL_16" function="internal">
        <lane id=":TL_16_0" index="0" speed="9.84" length="15.70" shape="723.73,1456.59,0.00 723.77,1456.19,0.00 726.02,1451.44,0.01 729.77,1448.59,0.01 735.02,1447.64,0.01"/>
    </edge>
    <edge id=":TL_4" function="internal">
        <lane id=":TL_4_0" index="0" speed="6.51" length="9.03" shape="735.02,1457.24,0.01 732.57,1457.59,0.01 730.82,1458.64,0.01 729.77,1460.39,0.00 729.42,1462.84"/>
    </edge>
    <edge id=":TL_5" function="internal">
        <lane id=":TL_5_0" index="0" speed="30.00" length="27.43" shape="735.02,1457.24,0.01 726.40,1456.74,0.01 720.04,1455.64,0.01 714.37,1454.54,0.00 707.82,1454.04"/>
        <lane id=":TL_5_1" index="1" speed="30.00" length="27.43" shape="735.02,1454.04,0.01 726.40,1453.54,0.01 720.04,1452.44,0.01 714.37,1451.34,0.00 707.82,1450.84"/>
    </edge>
    <edge id=":TL_7" function="internal">
        <lane id=":TL_7_0" index="0" speed="9.26" length="5.01" shape="735.02,1450.84,0.01 730.06,1450.14,-0.04"/>
    </edge>
    <edge id=":TL_17" function="internal">
        <lane id=":TL_17_0" index="0" speed="9.26" length="14.34" shape="730.06,1450.14,-0.04 729.77,1450.09,-0.04 726.02,1447.84,-0.08 723.77,1444.09,-0.13 723.02,1438.84,-0.18"/>
    </edge>
    <edge id=":TL_8" function="internal">
        <lane id=":TL_8_0" index="0" speed="6.51" length="9.03" shape="729.42,1438.84,-0.18 729.77,1441.29,-0.13 730.82,1443.04,-0.08 732.57,1444.09,-0.04 735.02,1444.44,0.01"/>
    </edge>
    <edge id=":TL_9" function="internal">
        <lane id=":TL_9_0" index="0" speed="30.00" length="24.00" shape="729.42,1438.84,-0.18 729.42,1462.84"/>
        <lane id=":TL_9_1" index="1" speed="30.00" length="24.00" shape="726.22,1438.84,-0.18 726.22,1462.84"/>
    </edge>
    <edge id=":TL_11" function="internal">
        <lane id=":TL_11_0" index="0" speed="10.41" length="5.14" shape="726.22,1438.84,-0.18 725.12,1443.86,-0.14"/>
    </edge>
    <edge id=":TL_18" function="internal">
        <lane id=":TL_18_0" index="0" speed="10.41" length="19.60" shape="725.12,1443.86,-0.14 725.07,1444.09,-0.14 721.62,1447.84,-0.10 715.87,1450.09,-0.06 707.82,1450.84"/>
    </edge>
    <edge id=":TL_12" function="internal">
        <lane id=":TL_12_0" index="0" speed="8.10" length="14.57" shape="707.82,1444.44 713.07,1444.09,-0.06 716.82,1443.04,-0.11 719.07,1441.29,-0.15 719.82,1438.84,-0.18"/>
    </edge>
    <edge id=":TL_13" function="internal">
        <lane id=":TL_13_0" index="0" speed="30.00" length="27.20" shape="707.82,1444.44 735.02,1444.44,0.01"/>
        <lane id=":TL_13_1" index="1" speed="30.00" length="27.20" shape="707.82,1447.64 735.02,1447.64,0.01"/>
    </edge>
    <edge id=":TL_15" function="internal">
        <lane id=":TL_15_0" index="0" speed="10.88" length="9.75" shape="707.82,1447.64 715.87,1448.59 717.34,1449.32"/>
    </edge>
    <edge id=":TL_19" function="internal">
        <lane id=":TL_19_0" index="0" speed="10.88" length="17.39" shape="717.34,1449.32 721.62,1451.44 725.07,1456.19 726.22,1462.84"/>
    </edge>

    <edge id="A2AA" from="A" to="AA" priority="-1">
        <lane id="A2AA_0" index="0" speed="30.00" length="276.02" shape="707.82,1753.27,-7.23 431.80,1753.27,-7.23"/>
        <lane id="A2AA_1" index="1" speed="30.00" length="276.02" shape="707.82,1750.07,-7.23 431.80,1750.07,-7.23"/>
        <lane id="A2AA_2" index="2" speed="30.00" length="276.02" shape="707.82,1746.87,-7.23 431.80,1746.87,-7.23"/>
        <lane id="A2AA_3" index="3" speed="30.00" length="276.02" shape="707.82,1743.67,-7.23 431.80,1743.67,-7.23"/>
    </edge>
    <edge id="A2AB" from="A" to="AB" priority="-1">
        <lane id="A2AB_0" index="0" speed="30.00" length="276.02" shape="735.82,1758.87,-7.23 735.82,2034.89,-7.23"/>
        <lane id="A2AB_1" index="1" speed="30.00" length="276.02" shape="732.62,1758.87,-7.23 732.62,2034.89,-7.23"/>
        <lane id="A2AB_2" index="2" speed="30.00" length="276.02" shape="729.42,1758.87,-7.23 729.42,2034.89,-7.23"/>
        <lane id="A2AB_3" index="3" speed="30.00" length="276.02" shape="726.22,1758.87,-7.23 726.22,2034.89,-7.23"/>
    </edge>
    <edge id="A2AC" from="A" to="AC" priority="-1">
        <lane id="A2AC_0" index="0" speed="30.00" length="276.02" shape="741.42,1730.87,-7.23 1017.45,1730.87,-7.23"/>
        <lane id="A2AC_1" index="1" speed="30.00" length="276.02" shape="741.42,1734.07,-7.23 1017.45,1734.07,-7.23"/>
        <lane id="A2AC_2" index="2" speed="30.00" length="276.02" shape="741.42,1737.27,-7.23 1017.45,1737.27,-7.23"/>
        <lane id="A2AC_3" index="3" speed="30.00" length="276.02" shape="741.42,1740.47,-7.23 1017.45,1740.47,-7.23"/>
    </edge>
    <edge id="A2TL" from="A" to="TL" priority="-1">
        <lane id="A2TL_0" index="0" speed="30.00" length="262.52" shape="713.42,1725.27,-7.23 713.42,1462.84"/>
        <lane id="A2TL_1" index="1" speed="30.00" length="262.52" shape="716.62,1725.27,-7.23 716.62,1462.84"/>
        <lane id="A2TL_2" index="2" speed="30.00" length="262.52" shape="719.82,1725.27,-7.23 719.82,1462.84"/>
        <lane id="A2TL_3" index="3" speed="30.00" length="262.52" shape="723.02,1725.27,-7.23 723.02,1462.84"/>
    </edge>
    <edge id="AA2A" from="AA" to="A" priority="-1">
        <lane id="AA2A_0" index="0" speed="30.00" length="276.02" shape="431.80,1737.27,-7.23 707.82,1737.27,-7.23"/>
        <lane id="AA2A_1" index="1" speed="30.00" length="276.02" shape="431.80,1740.47,-7.23 707.82,1740.47,-7.23"/>
    </edge>
    <edge id="AB2A" from="AB" to="A" priority="-1">
        <lane id="AB2A_0" index="0" speed="30.00" length="276.02" shape="719.82,2034.89,-7.23 719.82,1758.87,-7.23"/>
        <lane id="AB2A_1" index="1" speed="30.00" length="276.02" shape="723.02,2034.89,-7.23 723.02,1758.87,-7.23"/>
    </edge>
    <edge id="AC2A" from="AC" to="A" priority="-1">
        <lane id="AC2A_0" index="0" speed="30.00" length="276.02" shape="1017.45,1746.87,-7.23 741.42,1746.87,-7.23"/>
        <lane id="AC2A_1" index="1" speed="30.00" length="276.02" shape="1017.45,1743.67,-7.23 741.42,1743.67,-7.23"/>
    </edge>
    <edge id="B2BA" from="B" to="BA" priority="-1">
        <lane id="B2BA_0" index="0" speed="30.00" length="212.33" shape="958.55,1462.84,0.28 958.55,1675.17,0.28"/>
        <lane id="B2BA_1" index="1" speed="30.00" length="212.33" shape="955.35,1462.84,0.28 955.35,1675.17,0.28"/>
        <lane id="B2BA_2" index="2" speed="30.00" length="212.33" shape="952.15,1462.84,0.28 952.15,1675.17,0.28"/>
    </edge>
    <edge id="B2BB" from="B" to="BB" priority="-1">
        <lane id="B2BB_0" index="0" speed="30.00" length="212.33" shape="964.15,1441.24,0.28 1176.48,1441.24,0.28"/>
        <lane id="B2BB_1" index="1" speed="30.00" length="212.33" shape="964.15,1444.44,0.28 1176.48,1444.44,0.28"/>
        <lane id="B2BB_2" index="2" speed="30.00" length="212.33" shape="964.15,1447.64,0.28 1176.48,1447.64,0.28"/>
    </edge>
    <edge id="B2BC" from="B" to="BC" priority="-1">
        <lane id="B2BC_0" index="0" speed="30.00" length="212.33" shape="942.55,1435.64,0.28 942.55,1223.32,0.28"/>
        <lane id="B2BC_1" index="1" speed="30.00" length="212.33" shape="945.75,1435.64,0.28 945.75,1223.32,0.28"/>
        <lane id="B2BC_2" index="2" speed="30.00" length="212.33" shape="948.95,1435.64,0.28 948.95,1223.32,0.28"/>
    </edge>
    <edge id="B2TL" from="B" to="TL" priority="-1">
        <lane id="B2TL_0" index="0" speed="30.00" length="201.93" shape="936.95,1457.24,0.26 735.02,1457.24,0.01"/>
        <lane id="B2TL_1" index="1" speed="30.00" length="201.93" shape="936.95,1454.04,0.26 735.02,1454.04,0.01"/>
        <lane id="B2TL_2" index="2" speed="30.00" length="201.93" shape="936.95,1450.84,0.26 735.02,1450.84,0.01"/>
    </edge>
    <edge id="BA2B" from="BA" to="B" priority="-1">
        <lane id="BA2B_0" index="0" speed="30.00" length="212.33" shape="945.75,1675.17,0.28 945.75,1462.84,0.28"/>
        <lane id="BA2B_1" index="1" speed="30.00" length="212.33" shape="948.95,1675.17,0.28 948.95,1462.84,0.28"/>
    </edge>
    <edge id="BB2B" from="BB" to="B" priority="-1">
        <lane id="BB2B_0" index="0" speed="30.00" length="212.33" shape="1176.48,1454.04,0.28 964.15,1454.04,0.28"/>
        <lane id="BB2B_1" index="1" speed="30.00" length="212.33" shape="1176.48,1450.84,0.28 964.15,1450.84,0.28"/>
    </edge>
    <edge id="BC2B" from="BC" to="B" priority="-1">
        <lane id="BC2B_0" index="0" speed="30.00" length="212.33" shape="955.35,1223.32,0.28 955.35,1435.64,0.28"/>
        <lane id="BC2B_1" index="1" speed="30.00" length="212.33" shape="952.15,1223.32,0.28 952.15,1435.64,0.28"/>
    </edge>
    <edge id="C2CA" from="C" to="CA" priority="-1">
        <lane id="C2CA_0" index="0" speed="30.00" length="714.22" shape="735.02,719.82,-12.37 1449.24,719.82,-12.37"/>
        <lane id="C2CA_1" index="1" speed="30.00" length="714.22" shape="735.02,723.02,-12.37 1449.24,723.02,-12.37"/>
    </edge>
    <edge id="C2CB" from="C" to="CB" priority="-1">
        <lane id="C2CB_0" index="0" speed="30.00" length="714.22" shape="719.82,714.22,-12.37 719.82,-0.00,-12.37"/>
        <lane id="C2CB_1" index="1" speed="30.00" length="714.22" shape="723.02,714.22,-12.37 723.02,-0.00,-12.37"/>
    </edge>
    <edge id="C2CC" from="C" to="CC" priority="-1">
        <lane id="C2CC_0" index="0" speed="30.00" length="714.22" shape="714.22,729.42,-12.37 -0.00,729.42,-12.37"/>
        <lane id="C2CC_1" index="1" speed="30.00" length="714.22" shape="714.22,726.22,-12.37 -0.00,726.22,-12.37"/>
    </edge>
    <edge id="C2TL" from="C" to="TL" priority="-1">
        <lane id="C2TL_0" index="0" speed="30.00" length="703.92" shape="729.42,735.02,-12.19 729.42,1438.84,-0.18"/>
        <lane id="C2TL_1" index="1" speed="30.00" length="703.92" shape="726.22,735.02,-12.19 726.22,1438.84,-0.18"/>
    </edge>
    <edge id="CA2C" from="CA" to="C" priority="-1">
        <lane id="CA2C_0" index="0" speed="30.00" length="714.22" shape="1449.24,729.42,-12.37 735.02,729.42,-12.37"/>