<?xml version="1.0" encoding="UTF-8"?>

<!-- generated on 2022-10-11 16:45:14 by Eclipse SUMO netconvert Version 1.14.1
<configuration xmlns:xsi="http://www.w3.org/2001/XMLSchema-instance" xsi:noNamespaceSchemaLocation="http://sumo.dlr.de/xsd/netconvertConfiguration.xsd">

    <input>
        <node-files value="../data/salt-lake-city/nodes.nod.xml"/>
        <edge-files value="../data/salt-lake-city/edges.edg.xml"/>
        <connection-files value="../data/salt-lake-city/connections.con.xml"/>
    </input>

    <output>
        <output-file value="../data/salt-lake-city/sumo/net/155.net.xml"/>
    </output>

    <tls_building>
        <tls.minor-left.max-speed value="1"/>
    </tls_building>

    <report>
        <verbose value="true"/>
    </report>

</configuration>
-->

<net version="1.9" junctionCornerDetail="5" limitTurnSpeed="5.50" xmlns:xsi="http://www.w3.org/2001/XMLSchema-instance" xsi:noNamespaceSchemaLocation="http://sumo.dlr.de/xsd/net_file.xsd">

    <location netOffset="639.40,612.18" convBoundary="0.00,0.00,1259.82,1206.32" origBoundary="-639.40,-612.18,620.42,594.14" projParameter="!"/>

    <edge id=":B_0" function="internal">
        <lane id=":B_0_0" index="0" speed="6.51" length="9.03" shape="948.01,619.38,-2.36 947.66,616.93,-2.35 946.61,615.18,-2.34 944.86,614.13,-2.32 942.41,613.78,-2.31"/>
    </edge>
    <edge id=":B_1" function="internal">
        <lane id=":B_1_0" index="0" speed="20.00" length="14.40" shape="948.01,619.38,-2.36 948.01,604.98,-2.36"/>
    </edge>
    <edge id=":B_2" function="internal">
        <lane id=":B_2_0" index="0" speed="6.51" length="9.03" shape="956.81,613.78,-2.36 954.36,614.13,-2.36 952.61,615.18,-2.36 951.56,616.93,-2.36 951.21,619.38,-2.36"/>
    </edge>
    <edge id=":B_3" function="internal">
        <lane id=":B_3_0" index="0" speed="20.00" length="14.40" shape="956.81,613.78,-2.36 942.41,613.78,-2.31"/>
    </edge>
    <edge id=":B_4" function="internal">
        <lane id=":B_4_0" index="0" speed="6.51" length="9.03" shape="951.21,604.98,-2.36 951.56,607.43,-2.36 952.61,609.18,-2.36 954.36,610.23,-2.36 956.81,610.58,-2.36"/>
    </edge>
    <edge id=":B_5" function="internal">
        <lane id=":B_5_0" index="0" speed="20.00" length="14.40" shape="951.21,604.98,-2.36 951.21,619.38,-2.36"/>
    </edge>
    <edge id=":B_6" function="internal">
        <lane id=":B_6_0" index="0" speed="6.51" length="9.03" shape="942.41,610.58,-2.31 944.86,610.23,-2.32 946.61,609.18,-2.34 947.66,607.43,-2.35 948.01,604.98,-2.36"/>
    </edge>
    <edge id=":B_7" function="internal">
        <lane id=":B_7_0" index="0" speed="20.00" length="14.40" shape="942.41,610.58,-2.31 956.81,610.58,-2.36"/>
    </edge>
    <edge id=":BA_0" function="internal">
        <lane id=":BA_0_0" index="0" speed="3.65" length="4.67" shape="951.21,922.39,-2.36 950.41,923.59,-2.36 949.61,923.99,-2.36 948.81,923.59,-2.36 948.01,922.39,-2.36"/>
    </edge>
    <edge id=":BB_0" function="internal">
        <lane id=":BB_0_0" index="0" speed="3.65" length="4.67" shape="1259.82,610.58,-2.36 1261.02,611.38,-2.36 1261.42,612.18,-2.36 1261.02,612.98,-2.36 1259.82,613.78,-2.36"/>
    </edge>
    <edge id=":BC_0" function="internal">
        <lane id=":BC_0_0" index="0" speed="3.65" length="4.67" shape="948.01,301.97,-2.36 948.81,300.77,-2.36 949.61,300.37,-2.36 950.41,300.77,-2.36 951.21,301.97,-2.36"/>
    </edge>
    <edge id=":D_0" function="internal">
        <lane id=":D_0_0" index="0" speed="6.51" length="9.03" shape="318.10,619.38,4.87 317.75,616.93,4.87 316.70,615.18,4.87 314.95,614.13,4.87 312.50,613.78,4.87"/>
    </edge>
    <edge id=":D_1" function="internal">
        <lane id=":D_1_0" index="0" speed="20.00" length="14.40" shape="318.10,619.38,4.87 318.10,604.98,4.87"/>
    </edge>
    <edge id=":D_2" function="internal">
        <lane id=":D_2_0" index="0" speed="6.51" length="9.03" shape="326.90,613.78,4.76 324.45,614.13,4.79 322.70,615.18,4.82 321.65,616.93,4.84 321.30,619.38,4.87"/>
    </edge>
    <edge id=":D_3" function="internal">
        <lane id=":D_3_0" index="0" speed="20.00" length="14.40" shape="326.90,613.78,4.76 312.50,613.78,4.87"/>
    </edge>
    <edge id=":D_4" function="internal">
        <lane id=":D_4_0" index="0" speed="6.51" length="9.03" shape="321.30,604.98,4.87 321.65,607.43,4.84 322.70,609.18,4.82 324.45,610.23,4.79 326.90,610.58,4.76"/>
    </edge>
    <edge id=":D_5" function="internal">
        <lane id=":D_5_0" index="0" speed="20.00" length="14.40" shape="321.30,604.98,4.87 321.30,619.38,4.87"/>
    </edge>
    <edge id=":D_6" function="internal">
        <lane id=":D_6_0" index="0" speed="6.51" length="9.03" shape="312.50,610.58,4.87 314.95,610.23,4.87 316.70,609.18,4.87 317.75,607.43,4.87 318.10,604.98,4.87"/>
    </edge>
    <edge id=":D_7" function="internal">
        <lane id=":D_7_0" index="0" speed="20.00" length="14.40" shape="312.50,610.58,4.87 326.90,610.58,4.76"/>
    </edge>
    <edge id=":DA_0" function="internal">
        <lane id=":DA_0_0" index="0" speed="3.65" length="4.67" shape="318.10,292.48,4.87 318.90,291.28,4.87 319.70,290.88,4.87 320.50,291.28,4.87 321.30,292.48,4.87"/>
    </edge>
    <edge id=":DB_0" function="internal">
        <lane id=":DB_0_0" index="0" speed="3.65" length="4.67" shape="-0.00,613.78,4.87 -1.20,612.98,4.87 -1.60,612.18,4.87 -1.20,611.38,4.87 0.00,610.58,4.87"/>
    </edge>
    <edge id=":DC_0" function="internal">
        <lane id=":DC_0_0" index="0" speed="3.65" length="4.67" shape="321.30,931.88,4.87 320.50,933.08,4.87 319.70,933.48,4.87 318.90,933.08,4.87 318.10,931.88,4.87"/>
    </edge>
    <edge id=":TL_0" function="internal">
        <lane id=":TL_0_0" index="0" speed="6.51" length="9.03" shape="656.20,613.78,-0.13 653.75,614.13,-0.11 652.00,615.18,-0.10 650.95,616.93,-0.08 650.60,619.38,-0.06"/>
    </edge>
    <edge id=":TL_1" function="internal">
        <lane id=":TL_1_0" index="0" speed="20.00" length="20.80" shape="656.20,613.78,-0.13 635.40,613.78,0.06"/>
    </edge>
    <edge id=":TL_2" function="internal">
        <lane id=":TL_2_0" index="0" speed="6.51" length="9.03" shape="650.60,604.98,-0.06 650.95,607.43,-0.08 652.00,609.18,-0.10 653.75,610.23,-0.11 656.20,610.58,-0.13"/>
    </edge>
    <edge id=":TL_3" function="internal">
        <lane id=":TL_3_0" index="0" speed="35.00" length="14.40" shape="650.60,604.98,-0.06 650.60,619.38,-0.06"/>
        <lane id=":TL_3_1" index="1" speed="35.00" length="14.40" shape="647.40,604.98,-0.06 647.40,619.38,-0.06"/>
        <lane id=":TL_3_2" index="2" speed="35.00" length="14.40" shape="644.20,604.98,-0.06 644.20,619.38,-0.06"/>
        <lane id=":TL_3_3" index="3" speed="35.00" length="14.40" shape="641.00,604.98,-0.06 641.00,619.38,-0.06"/>
    </edge>
    <edge id=":TL_7" function="internal">
        <lane id=":TL_7_0" index="0" speed="7.33" length="11.73" shape="641.00,604.98,-0.06 640.65,608.83,-0.02 639.60,611.58,0.01 637.85,613.23,0.03 635.40,613.78,0.06"/>
    </edge>
    <edge id=":TL_8" function="internal">
        <lane id=":TL_8_0" index="0" speed="20.00" length="20.80" shape="635.40,610.58,0.06 656.20,610.58,-0.13"/>
    </edge>

    <edge id="AA2A" from="AA" to="A" priority="-1">
        <lane id="AA2A_0" index="0" speed="35.00" length="282.77" shape="342.33,898.05,-2.63 625.10,898.05,-2.63"/>
        <lane id="AA2A_1" index="1" speed="35.00" length="282.77" shape="342.33,901.25,-2.63 625.10,901.25,-2.63"/>
        <lane id="AA2A_2" index="2" speed="35.00" length="282.77" shape="342.33,904.45,-2.63 625.10,904.45,-2.63"/>
        <lane id="AA2A_3" index="3" speed="35.00" length="282.77" shape="342.33,907.65,-2.63 625.10,907.65,-2.63"/>
    </edge>
    <edge id="AB2A" from="AB" to="A" priority="-1">
        <lane id="AB2A_0" index="0" speed="35.00" length="282.77" shape="628.20,1206.32,-2.63 628.20,923.55,-2.63"/>
        <lane id="AB2A_1" index="1" speed="35.00" length="282.77" shape="631.40,1206.32,-2.63 631.40,923.55,-2.63"/>
        <lane id="AB2A_2" index="2" speed="35.00" length="282.77" shape="634.60,1206.32,-2.63 634.60,923.55,-2.63"/>
        <lane id="AB2A_3" index="3" speed="35.00" length="282.77" shape="637.80,1206.32,-2.63 637.80,923.55,-2.63"/>
    </edge>
    <edge id="AC2A" from="AC" to="A" priority="-1">
        <lane id="AC2A_0" index="0" speed="35.00" length="282.77" shape="936.47,920.45,-2.63 653.70,920.45,-2.63"/>
        <lane id="AC2A_1" index="1" speed="35.00" length="282.77" shape="936.47,917.25,-2.63 653.70,917.25,-2.63"/>
        <lane id="AC2A_2" index="2" speed="35.00" length="282.77" shape="936.47,914.05,-2.63 653.70,914.05,-2.63"/>
        <lane id="AC2A_3" index="3" speed="35.00" length="282.77" shape="936.47,910.85,-2.63 653.70,910.85,-2.63"/>
    </edge>
    <edge id="B2BA" from="B" to="BA" priority="-1">
        <lane id="B2BA_0" index="0" speed="20.00" length="303.01" shape="951.21,619.38,-2.36 951.21,922.39,-2.36"/>
    </edge>
    <edge id="B2BB" from="B" to="BB" priority="-1">
        <lane id="B2BB_0" index="0" speed="20.00" length="303.01" shape="956.81,610.58,-2.36 1259.82,610.58,-2.36"/>
    </edge>
    <edge id="B2BC" from="B" to="BC" priority="-1">
        <lane id="B2BC_0" index="0" speed="20.00" length="303.01" shape="948.01,604.98,-2.36 948.01,301.97,-2.36"/>
    </edge>
    <edge id="B2TL" from="B" to="TL" priority="-1">
        <lane id="B2TL_0" index="0" speed="20.00" length="286.22" shape="942.41,613.78,-2.31 656.20,613.78,-0.13"/>
    </edge>
    <edge id="BA2B" from="BA" to="B" priority="-1">
        <lane id="BA2B_0" index="0" speed="20.00" length="303.01" shape="948.01,922.39,-2.36 948.01,619.38,-2.36"/>
    </edge>
    <edge id="BB2B" from="BB" to="B" priority="-1">
        <lane id="BB2B_0" index="0" speed="20.00" length="303.01" shape="1259.82,613.78,-2.36 956.81,613.78,-2.36"/>
    </edge>
    <edge id="BC2B" from="BC" to="B" priority="-1">
        <lane id="BC2B_0" index="0" speed="20.00" length="303.01" shape="951.21,301.97,-2.36 951.21,604.98,-2.36"/>
    </edge>
    <edge id="C2CA" from="C" to="CA" priority="-1">
        <lane id="C2CA_0" index="0" speed="35.00" length="291.79" shape="653.70,294.89,-2.71 945.49,294.89,-2.71"/>
        <lane id="C2CA_1" index="1" speed="35.00" length="291.79" shape="653.70,298.09,-2.71 945.49,298.09,-2.71"/>
        <lane id="C2CA_2" index="2" speed="35.00" length="291.79" shape="653.70,301.29,-2.71 945.49,301.29,-2.71"/>
        <lane id="C2CA_3" index="3" speed="35.00" length="291.79" shape="653.70,304.49,-2.71 945.49,304.49,-2.71"/>
    </edge>
    <edge id="C2CB" from="C" to="CB" priority="-1">
        <lane id="C2CB_0" index="0" speed="35.00" length="291.79" shape="628.20,291.79,-2.71 628.20,-0.00,-2.71"/>
        <lane id="C2CB_1" index="1" speed="35.00" length="291.79" shape="631.40,291.79,-2.71 631.40,-0.00,-2.71"/>
        <lane id="C2CB_2" index="2" speed="35.00" length="291.79" shape="634.60,291.79,-2.71 634.60,-0.00,-2.71"/>
        <lane id="C2CB_3" index="3" speed="35.00" length="291.79" shape="637.80,291.79,-2.71 637.80,-0.00,-2.71"/>
    </edge>
    <edge id="C2CC" from="C" to="CC" priority="-1">
        <lane id="C2CC_0" index="0" speed="35.00" length="291.79" shape="625.10,317.29,-2.71 333.31,317.29,-2.71"/>
        <lane id="C2CC_1" index="1" speed="35.00" length="291.79" shape="625.10,314.09,-2.71 333.31,314.09,-2.71"/>
        <lane id="C2CC_2" index="2" speed="35.00" length="291.79" shape="625.10,310.89,-2.71 333.31,310.89,-2.71"/>
        <lane id="C2CC_3" index="3" speed="35.00" length="291.79" shape="625.10,307.69,-2.71 333.31,307.69,-2.71"/>
    </edge>
    <edge id="C2TL" from="C" to="TL" priority="-1">
        <lane id="C2TL_0" index="0" speed="35.00" length="284.60" shape="650.60,320.39,-2.58 650.60,604.98,-0.06"/>
        <lane id="C2TL_1" index="1" speed="35.00" length="284.60" shape="647.40,320.39,-2.58 647.40,604.98,-0.06"/>
        <lane id="C2TL_2" index="2" speed="35.00" length="284.60" shape="644.20,320.39,-2.58 644.20,604.98,-0.06"/>
        <lane id="C2TL_3" index="3" speed="35.00" length="284.60" shape="641.00,320.39,-2.58 641.00,604.98,-0.06"/>
    </edge>
    <edge id="D2DA" from="D" to="DA" priority="-1">
        <lane id="D2DA_0" index="0" speed="20.00" length="312.50" shape="318.10,604.98,4.87 318.10,292.48,4.87"/>
    </edge>
    <edge id="D2DB" from="D" to="DB" priority="-1">
        <lane id="D2DB_0" index="0" speed="20.00" length="312.50" shape="312.50,613.78,4.87 -0.00,613.78,4.87"/>
    </edge>
    <edge id="D2DC" from="D" to="DC" priority="-1">
        <lane id="D2DC_0" index="0" speed="20.00" length="312.50" shape="321.30,619.38,4.87 321.30,931.88,4.87"/>
    </edge>
    <edge id="D2TL" from="D" to="TL" priority="-1">
        <lane id="D2TL_0" index="0" speed="20.00" length="308.54" shape="326.90,610.58,4.76 635.40,610.58,0.06"/>
    </edge>
    <edge id="DA2D" from="DA" to="D" priority="-1">
        <lane id="DA2D_0" index="0" speed="20.00" length="312.50" shape="321.30,292.48,4.87 321.30,604.98,4.87"/>
    </edge>
    <edge id="DB2D" from="DB" to="D" priority="-1">
        <lane id="DB2D_0" index="0" speed="20.00" length="312.50" shape="0.00,610.58,4.87 312.50,610.58,4.87"/>
    </edge>
    <edge id="DC2D" from="DC" to="D" priority="-1">
        <lane id="DC2D_0" index="0" speed="20.00" length="312.50" shape="318.10,931.88,4.87 318.10,619.38,4.87"/>
    </edge>
    <edge id="TL2A" from="TL" to="A" priority="-1">
        <lane id="TL2A_0" index="0" speed="35.00" length="275.58" shape="650.60,619.38,-0.06 650.60,894.95,-2.50"/>
        <lane id="TL2A_1" index="1" speed="35.00" length="275.58" shape="647.40,619.38,-0.06 647.40,894.95,-2.50"/>
        <lane id="TL2A_2" index="2" speed="35.00" length="275.58" shape="644.20,619.38,-0.06 644.20,894.95,-2.50"/>
        <lane id="TL2A_3" index="3" speed="35.00" length="275.58" shape="641.00,619.38,-0.06 641.00,894.95,-2.50"/>
    </edge>
    <edge id="TL2B" from="TL" to="B" priority="-1">
        <lane id="TL2B_0" index="0" speed="20.00" length="286.22" shape="656.20,610.58,-0.13 942.41,610.58,-2.31"/>
    </edge>
    <edge id="TL2D" from="TL" to="D" priority="-1">
        <lane id="TL2D_0" index="0" speed="20.00" length="308.54" shape="635.40,613.78,0.06 326.90,613.78,4.76"/>
    </edge>

    <tlLogic id="B" type="static" programID="0" offset="0">
        <phase duration="40" state="GGrrGGrr"/>
        <phase duration="5"  state="yyrryyrr"/>
        <phase duration="40" state="rrGGrrGG"/>
        <phase duration="5"  state="rryyrryy"/>
    </tlLogic>
    <tlLogic id="BA" type="static" programID="0" offset="0">
        <phase duration="80" state="G"/>
        <phase duration="5"  state="y"/>
        <phase duration="5"  state="r"/>
    </tlLogic>
    <tlLogic id="BB" type="static" programID="0" offset="0">
        <phase duration="80" state="G"/>
        <phase duration="5"  state="y"/>
        <phase duration="5"  state="r"/>
    </tlLogic>
    <tlLogic id="BC" type="static" programID="0" offset="0">
        <phase duration="80" state="G"/>
        <phase duration="5"  state="y"/>
        <phase duration="5"  state="r"/>
    </tlLogic>
    <tlLogic id="D" type="static" programID="0" offset="0">
        <phase duration="40" state="GGrrGGrr"/>
        <phase duration="5"  state="yyrryyrr"/>
        <phase duration="40" state="rrGGrrGG"/>
        <phase duration="5"  state="rryyrryy"/>
    </tlLogic>
    <tlLogic id="DA" type="static" programID="0" offset="0">
        <phase duration="80" state="G"/>
        <phase duration="5"  state="y"/>
        <phase duration="5"  state="r"/>
    </tlLogic>
    <tlLogic id="DB" type="static" programID="0" offset="0">
        <phase duration="80" state="G"/>
        <phase duration="5"  state="y"/>
        <phase duration="5"  state="r"/>
    </tlLogic>
    <tlLogic id="DC" type="static" programID="0" offset="0">
        <phase duration="80" state="G"/>
        <phase duration="5"  state="y"/>
        <phase duration="5"  state="r"/>
    </tlLogic>
    <tlLogic id="TL" type="static" programID="0" offset="0">
        <phase duration="38" state="GGsrrrrrG"/>
        <phase duration="7"  state="yysrrrrry"/>
        <phase duration="38" state="srGGGGGGr"/>
        <phase duration="7"  state="sryyyyyyr"/>
    </tlLogic>

    <junction id="A" type="dead_end" x="639.40" y="909.25" z="-2.63" incLanes="AB2A_0 AB2A_1 AB2A_2 AB2A_3 AC2A_0 AC2A_1 AC2A_2 AC2A_3 TL2A_0 TL2A_1 TL2A_2 TL2A_3 AA2A_0 AA2A_1 AA2A_2 AA2A_3" intLanes="" shape="626.60,923.55,-2.63 639.40,923.55,-2.63 640.99,922.71,-2.63 642.98,922.42,-2.63 645.76,922.21,-2.63 649.33,922.09,-2.63 653.70,922.05,-2.63 653.70,909.25,-2.63 652.87,907.66,-2.63 652.58,905.67,-2.63 652.37,902.89,-2.63 652.24,899.32,-2.63 652.20,894.95,-2.63 639.40,894.95,-2.63 637.81,895.78,-2.63 635.83,896.07,-2.63 633.05,896.28,-2.63 629.47,896.41,-2.63 625.10,896.45,-2.63 625.10,909.25,-2.63 625.93,910.84,-2.63 626.23,912.82,-2.63 626.43,915.60,-2.63 626.56,919.18,-2.63"/>
    <junction id="AA" type="dead_end" x="342.33" y="909.25" z="-2.63" incLanes="" intLanes="" shape="342.33,909.25,-2.63 342.33,896.45,-2.63"/>
    <junction id="AB" type="dead_end" x="639.40" y="1206.32" z="-2.63" incLanes="" intLanes="" shape="639.40,1206.32,-2.63 626.60,1206.32,-2.63"/>
    <junction id="AC" type="dead_end" x="936.47" y="909.25" z="-2.63" incLanes="" intLanes="" shape="936.47,909.25,-2.63 936.47,922.05,-2.63"/>
    <junction id="B" type="traffic_light" x="949.61" y="612.18" z="-2.36" incLanes="BA2B_0 BB2B_0 BC2B_0 TL2B_0" intLanes=":B_0_0 :B_1_0 :B_2_0 :B_3_0 :B_4_0 :B_5_0 :B_6_0 :B_7_0" shape="946.41,619.38,-2.36 952.81,619.38,-2.36 953.25,617.16,-2.36 953.81,616.38,-2.36 954.59,615.82,-2.36 955.59,615.49,-2.36 956.81,615.38,-2.36 956.81,608.98,-2.36 954.59,608.53,-2.36 953.81,607.98,-2.36 953.25,607.20,-2.36 952.92,606.20,-2.36 952.81,604.98,-2.36 946.41,604.98,-2.36 945.97,607.20,-2.36 945.41,607.98,-2.36 944.63,608.53,-2.36 943.63,608.87,-2.36 942.41,608.98,-2.36 942.41,615.38,-2.36 944.63,615.82,-2.36 945.41,616.38,-2.36 945.97,617.16,-2.36 946.30,618.16,-2.36">
        <request index="0" response="00000000" foes="00001000" cont="0"/>
        <request index="1" response="00000000" foes="11001000" cont="0"/>
        <request index="2" response="00100000" foes="00100000" cont="0"/>
        <request index="3" response="00100011" foes="00100011" cont="0"/>
        <request index="4" response="00000000" foes="10000000" cont="0"/>
        <request index="5" response="00000000" foes="10001100" cont="0"/>
        <request index="6" response="00000010" foes="00000010" cont="0"/>
        <request index="7" response="00110010" foes="00110010" cont="0"/>
    </junction>
    <junction id="BA" type="traffic_light" x="949.61" y="922.39" z="-2.36" incLanes="B2BA_0" intLanes=":BA_0_0" shape="949.61,922.39,-2.36 952.81,922.39,-2.36 949.61,922.39,-2.36">
        <request index="0" response="0" foes="0" cont="0"/>
    </junction>
    <junction id="BB" type="traffic_light" x="1259.82" y="612.18" z="-2.36" incLanes="B2BB_0" intLanes=":BB_0_0" shape="1259.82,612.18,-2.36 1259.82,608.98,-2.36 1259.82,612.18,-2.36">
        <request index="0" response="0" foes="0" cont="0"/>
    </junction>
    <junction id="BC" type="traffic_light" x="949.61" y="301.97" z="-2.36" incLanes="B2BC_0" intLanes=":BC_0_0" shape="949.61,301.97,-2.36 946.41,301.97,-2.36 949.61,301.97,-2.36">
        <request index="0" response="0" foes="0" cont="0"/>
    </junction>
    <junction id="C" type="dead_end" x="639.40" y="306.09" z="-2.71" incLanes="" intLanes="" shape="639.40,320.39,-2.71 652.20,320.39,-2.71 652.24,316.02,-2.71 652.37,312.45,-2.71 652.58,309.66,-2.71 652.87,307.68,-2.71 653.24,306.49,-2.71 653.70,306.09,-2.71 653.70,293.29,-2.71 649.33,293.25,-2.71 645.76,293.12,-2.71 642.98,292.91,-2.71 640.99,292.62,-2.71 639.80,292.25,-2.71 639.40,291.79,-2.71 626.60,291.79,-2.71 626.56,296.16,-2.71 626.43,299.73,-2.71 626.23,302.51,-2.71 625.93,304.50,-2.71 625.56,305.69,-2.71 625.10,306.09,-2.71 625.10,318.89,-2.71 629.47,318.93,-2.71 633.05,319.06,-2.71 635.83,319.26,-2.71 637.81,319.56,-2.71 639.00,319.93,-2.71"/>
    <junction id="CA" type="dead_end" x="945.49" y="306.09" z="-2.71" incLanes="C2CA_0 C2CA_1 C2CA_2 C2CA_3" intLanes="" shape="945.49,293.29,-2.71 945.49,306.09,-2.71"/>
    <junction id="CB" type="dead_end" x="639.40" y="0.00" z="-2.71" incLanes="C2CB_0 C2CB_1 C2CB_2 C2CB_3" intLanes="" shape="626.60,-0.00,-2.71 639.40,-0.00,-2.71"/>
    <junction id="CC" type="dead_end" x="333.31" y="306.09" z="-2.71" incLanes="C2CC_0 C2CC_1 C2CC_2 C2CC_3" intLanes="" shape="333.31,318.89,-2.71 333.31,306.09,-2.71"/>
    <junction id="D" type="traffic_light" x="319.70" y="612.18" z="4.87" incLanes="DC2D_0 TL2D_0 DA2D_0 DB2D_0" intLanes=":D_0_0 :D_1_0 :D_2_0 :D_3_0 :D_4_0 :D_5_0 :D_6_0 :D_7_0" shape="316.50,619.38,4.87 322.90,619.38,4.87 323.35,617.16,4.87 323.90,616.38,4.87 324.68,615.82,4.87 325.68,615.49,4.87 326.90,615.38,4.87 326.90,608.98,4.87 324.68,608.53,4.87 323.90,607.98,4.87 323.35,607.20,4.87 323.01,606.20,4.87 322.90,604.98,4.87 316.50,604.98,4.87 316.06,607.20,4.87 315.50,607.98,4.87 314.72,608.53,4.87 313.72,608.87,4.87 312.50,608.98,4.87 312.50,615.38,4.87 314.72,615.82,4.87 315.50,616.38,4.87 316.06,617.16,4.87 316.39,618.16,4.87">
        <request index="0" response="00000000" foes="00001000" cont="0"/>
        <request index="1" response="00000000" foes="11001000" cont="0"/>
        <request index="2" response="00100000" foes="00100000" cont="0"/>
        <request index="3" response="00100011" foes="00100011" cont="0"/>
        <request index="4" response="00000000" foes="10000000" cont="0"/>
        <request index="5" response="00000000" foes="10001100" cont="0"/>
        <request index="6" response="00000010" foes="00000010" cont="0"/>
        <request index="7" response="00110010" foes="00110010" cont="0"/>
    </junction>
    <junction id="DA" type="traffic_light" x="319.70" y="292.48" z="4.87" incLanes="D2DA_0" intLanes=":DA_0_0" shape="319.70,292.48,4.87 316.50,292.48,4.87 319.70,292.48,4.87">
        <request index="0" response="0" foes="0" cont="0"/>
    </junction>
    <junction id="DB" type="traffic_light" x="0.00" y="612.18" z="4.87" incLanes="D2DB_0" intLanes=":DB_0_0" shape="0.00,612.18,4.87 0.00,615.38,4.87 0.00,612.18,4.87">
        <request index="0" response="0" foes="0" cont="0"/>
    </junction>
    <junction id="DC" type="traffic_light" x="319.70" y="931.88" z="4.87" incLanes="D2DC_0" intLanes=":DC_0_0" shape="319.70,931.88,4.87 322.90,931.88,4.87 319.70,931.88,4.87">
        <request index="0" response="0" foes="0" cont="0"/>
    </junction>
    <junction id="TL" type="traffic_light_right_on_red" x="639.40" y="612.18" incLanes="B2TL_0 C2TL_0 C2TL_1 C2TL_2 C2TL_3 D2TL_0" intLanes=":TL_0_0 :TL_1_0 :TL_2_0 :TL_3_0 :TL_3_1 :TL_3_2 :TL_3_3 :TL_7_0 :TL_8_0" shape="639.40,619.38 652.20,619.38 652.65,617.16 653.20,616.38 653.98,615.82 654.98,615.49 656.20,615.38 656.20,608.98 653.98,608.53 653.20,607.98 652.65,607.20 652.31,606.20 652.20,604.98 639.40,604.98 638.96,607.20 638.40,607.98 637.62,608.53 636.62,608.87 635.40,608.98 635.40,615.38 637.62,615.82 638.40,616.38 638.96,617.16 639.29,618.16">
        <request index="0" response="001111000" foes="001111000" cont="0"/>
        <request index="1" response="011111000" foes="011111000" cont="0"/>
        <request index="2" response="100000000" foes="100000000" cont="0"/>
        <request index="3" response="000000000" foes="100000011" cont="0"/>
        <request index="4" response="000000000" foes="100000011" cont="0"/>
        <request index="5" response="000000000" foes="100000011" cont="0"/>
        <request index="6" response="000000000" foes="100000011" cont="0"/>
        <request index="7" response="000000000" foes="100000010" cont="0"/>
        <request index="8" response="011111100" foes="011111100" cont="0"/>
    </junction>

    <connection from="B2BA" to="BA2B" fromLane="0" toLane="0" via=":BA_0_0" tl="BA" linkIndex="0" dir="t" state="O"/>
    <connection from="B2BB" to="BB2B" fromLane="0" toLane="0" via=":BB_0_0" tl="BB" linkIndex="0" dir="t" state="O"/>
    <connection from="B2BC" to="BC2B" fromLane="0" toLane="0" via=":BC_0_0" tl="BC" linkIndex="0" dir="t" state="O"/>
    <connection from="B2TL" to="TL2A" fromLane="0" toLane="0" via=":TL_0_0" tl="TL" linkIndex="0" dir="r" state="o"/>
    <connection from="B2TL" to="TL2D" fromLane="0" toLane="0" via=":TL_1_0" tl="TL" linkIndex="1" dir="s" state="o"/>
    <connection from="BA2B" to="B2TL" fromLane="0" toLane="0" via=":B_0_0" tl="B" linkIndex="0" dir="r" state="O"/>
    <connection from="BA2B" to="B2BC" fromLane="0" toLane="0" via=":B_1_0" tl="B" linkIndex="1" dir="s" state="O"/>
    <connection from="BB2B" to="B2BA" fromLane="0" toLane="0" via=":B_2_0" tl="B" linkIndex="2" dir="r" state="o"/>
    <connection from="BB2B" to="B2TL" fromLane="0" toLane="0" via=":B_3_0" tl="B" linkIndex="3" dir="s" state="o"/>
    <connection from="BC2B" to="B2BB" fromLane="0" toLane="0" via=":B_4_0" tl="B" linkIndex="4" dir="r" state="O"/>
    <connection from="BC2B" to="B2BA" fromLane="0" toLane="0" via=":B_5_0" tl="B" linkIndex="5" dir="s" state="O"/>
    <connection from="C2TL" to="TL2B" fromLane="0" toLane="0" via=":TL_2_0" tl="TL" linkIndex="2" dir="r" state="O"/>
    <connection from="C2TL" to="TL2A" fromLane="0" toLane="0" via=":TL_3_0" tl="TL" linkIndex="3" dir="s" state="O"/>
    <connection from="C2TL" to="TL2A" fromLane="1" toLane="1" via=":TL_3_1" tl="TL" linkIndex="4" dir="s" state="O"/>
    <connection from="C2TL" to="TL2A" fromLane="2" toLane="2" via=":TL_3_2" tl="TL" linkIndex="5" dir="s" state="O"/>
    <connection from="C2TL" to="TL2A" fromLane="3" toLane="3" via=":TL_3_3" tl="TL" linkIndex="6" dir="s" state="O"/>
    <connection from="C2TL" to="TL2D" fromLane="3" toLane="0" via=":TL_7_0" tl="TL" linkIndex="7" dir="l" state="O"/>
    <connection from="D2DA" to="DA2D" fromLane="0" toLane="0" via=":DA_0_0" tl="DA" linkIndex="0" dir="t" state="O"/>
    <connection from="D2DB" to="DB2D" fromLane="0" toLane="0" via=":DB_0_0" tl="DB" linkIndex="0" dir="t" state="O"/>
    <connection from="D2DC" to="DC2D" fromLane="0" toLane="0" via=":DC_0_0" tl="DC" linkIndex="0" dir="t" state="O"/>
    <connection from="D2TL" to="TL2B" fromLane="0" toLane="0" via=":TL_8_0" tl="TL" linkIndex="8" dir="s" state="o"/>
    <connection from="DA2D" to="D2TL" fromLane="0" toLane="0" via=":D_4_0" tl="D" linkIndex="4" dir="r" state="O"/>
    <connection from="DA2D" to="D2DC" fromLane="0" toLane="0" via=":D_5_0" tl="D" linkIndex="5" dir="s" state="O"/>
    <connection from="DB2D" to="D2DA" fromLane="0" toLane="0" via=":D_6_0" tl="D" linkIndex="6" dir="r" state="o"/>
    <connection from="DB2D" to="D2TL" fromLane="0" toLane="0" via=":D_7_0" tl="D" linkIndex="7" dir="s" state="o"/>
    <connection from="DC2D" to="D2DB" fromLane="0" toLane="0" via=":D_0_0" tl="D" linkIndex="0" dir="r" state="O"/>
    <connection from="DC2D" to="D2DA" fromLane="0" toLane="0" via=":D_1_0" tl="D" linkIndex="1" dir="s" state="O"/>
    <connection from="TL2B" to="B2BC" fromLane="0" toLane="0" via=":B_6_0" tl="B" linkIndex="6" dir="r" state="o"/>
    <connection from="TL2B" to="B2BB" fromLane="0" toLane="0" via=":B_7_0" tl="B" linkIndex="7" dir="s" state="o"/>
    <connection from="TL2D" to="D2DC" fromLane="0" toLane="0" via=":D_2_0" tl="D" linkIndex="2" dir="r" state="o"/>
    <connection from="TL2D" to="D2DB" fromLane="0" toLane="0" via=":D_3_0" tl="D" linkIndex="3" dir="s" state="o"/>

    <connection from=":B_0" to="B2TL" fromLane="0" toLane="0" dir="r" state="M"/>
    <connection from=":B_1" to="B2BC" fromLane="0" toLane="0" dir="s" state="M"/>
    <connection from=":B_2" to="B2BA" fromLane="0" toLane="0" dir="r" state="M"/>
    <connection from=":B_3" to="B2TL" fromLane="0" toLane="0" dir="s" state="M"/>
    <connection from=":B_4" to="B2BB" fromLane="0" toLane="0" dir="r" state="M"/>
    <connection from=":B_5" to="B2BA" fromLane="0" toLane="0" dir="s" state="M"/>
    <connection from=":B_6" to="B2BC" fromLane="0" toLane="0" dir="r" state="M"/>
    <connection from=":B_7" to="B2BB" fromLane="0" toLane="0" dir="s" state="M"/>
    <connection from=":BA_0" to="BA2B" fromLane="0" toLane="0" dir="t" state="M"/>
    <connection from=":BB_0" to="BB2B" fromLane="0" toLane="0" dir="t" state="M"/>
    <connection from=":BC_0" to="BC2B" fromLane="0" toLane="0" dir="t" state="M"/>
    <connection from=":D_0" to="D2DB" fromLane="0" toLane="0" dir="r" state="M"/>
    <connection from=":D_1" to="D2DA" fromLane="0" toLane="0" dir="s" state="M"/>
    <connection from=":D_2" to="D2DC" fromLane="0" toLane="0" dir="r" state="M"/>
    <connection from=":D_3" to="D2DB" fromLane="0" toLane="0" dir="s" state="M"/>
    <connection from=":D_4" to="D2TL" fromLane="0" toLane="0" dir="r" state="M"/>
    <connection from=":D_5" to="D2DC" fromLane="0" toLane="0" dir="s" state="M"/>
    <connection from=":D_6" to="D2DA" fromLane="0" toLane="0" dir="r" state="M"/>
    <connection from=":D_7" to="D2TL" fromLane="0" toLane="0" dir="s" state="M"/>
    <connection from=":DA_0" to="DA2D" fromLane="0" toLane="0" dir="t" state="M"/>
    <connection from=":DB_0" to="DB2D" fromLane="0" toLane="0" dir="t" state="M"/>
    <connection from=":DC_0" to="DC2D" fromLane="0" toLane="0" dir="t" state="M"/>
    <connection from=":TL_0" to="TL2A" fromLane="0" toLane="0" dir="r" state="M"/>
    <connection from=":TL_1" to="TL2D" fromLane="0" toLane="0" dir="s" state="M"/>
    <connection from=":TL_2" to="TL2B" fromLane="0" toLane="0" dir="r" state="M"/>
    <connection from=":TL_3" to="TL2A" fromLane="0" toLane="0" dir="s" state="M"/>
    <connection from=":TL_3" to="TL2A" fromLane="1" toLane="1" dir="s" state="M"/>
    <connection from=":TL_3" to="TL2A" fromLane="2" toLane="2" dir="s" state="M"/>
    <connection from=":TL_3" to="TL2A" fromLane="3" toLane="3" dir="s" state="M"/>
    <connection from=":TL_7" to="TL2D" fromLane="0" toLane="0" dir="l" state="M"/>