<?xml version="1.0" encoding="UTF-8"?>

<!-- generated on 2022-10-11 17:10:59 by Eclipse SUMO netconvert Version 1.14.1
<configuration xmlns:xsi="http://www.w3.org/2001/XMLSchema-instance" xsi:noNamespaceSchemaLocation="http://sumo.dlr.de/xsd/netconvertConfiguration.xsd">

    <input>
        <node-files value="../data/salt-lake-city/nodes.nod.xml"/>
        <edge-files value="../data/salt-lake-city/edges.edg.xml"/>
        <connection-files value="../data/salt-lake-city/connections.con.xml"/>
    </input>

    <output>
        <output-file value="../data/salt-lake-city/sumo/net/156.net.xml"/>
    </output>

    <tls_building>
        <tls.minor-left.max-speed value="1"/>
    </tls_building>

    <report>
        <verbose value="true"/>
    </report>

</configuration>
-->

<net version="1.9" junctionCornerDetail="5" limitTurnSpeed="5.50" xmlns:xsi="http://www.w3.org/2001/XMLSchema-instance" xsi:noNamespaceSchemaLocation="http://sumo.dlr.de/xsd/net_file.xsd">

    <location netOffset="590.36,608.38" convBoundary="0.00,0.00,1200.80,1247.78" origBoundary="-590.36,-608.38,610.43,639.40" projParameter="!"/>

    <edge id=":A_0" function="internal">
        <lane id=":A_0_0" index="0" speed="6.51" length="9.03" shape="588.76,935.28,-2.44 588.41,932.83,-2.44 587.36,931.08,-2.44 585.61,930.03,-2.44 583.16,929.68,-2.44"/>
    </edge>
    <edge id=":A_1" function="internal">
        <lane id=":A_1_0" index="0" speed="20.00" length="14.40" shape="588.76,935.28,-2.44 588.76,920.88,-2.38"/>
    </edge>
    <edge id=":A_2" function="internal">
        <lane id=":A_2_0" index="0" speed="6.51" length="9.03" shape="597.56,929.68,-2.44 595.11,930.03,-2.44 593.36,931.08,-2.44 592.31,932.83,-2.44 591.96,935.28,-2.44"/>
    </edge>
    <edge id=":A_3" function="internal">
        <lane id=":A_3_0" index="0" speed="20.00" length="14.40" shape="597.56,929.68,-2.44 583.16,929.68,-2.44"/>
    </edge>
    <edge id=":A_4" function="internal">
        <lane id=":A_4_0" index="0" speed="6.51" length="9.03" shape="591.96,920.88,-2.38 592.31,923.33,-2.40 593.36,925.08,-2.41 595.11,926.13,-2.42 597.56,926.48,-2.44"/>
    </edge>
    <edge id=":A_5" function="internal">
        <lane id=":A_5_0" index="0" speed="20.00" length="14.40" shape="591.96,920.88,-2.38 591.96,935.28,-2.44"/>
    </edge>
    <edge id=":A_6" function="internal">
        <lane id=":A_6_0" index="0" speed="6.51" length="9.03" shape="583.16,926.48,-2.44 585.61,926.13,-2.42 587.36,925.08,-2.41 588.41,923.33,-2.40 588.76,920.88,-2.38"/>
    </edge>
    <edge id=":A_7" function="internal">
        <lane id=":A_7_0" index="0" speed="20.00" length="14.40" shape="583.16,926.48,-2.44 597.56,926.48,-2.44"/>
    </edge>
    <edge id=":AA_0" function="internal">
        <lane id=":AA_0_0" index="0" speed="3.65" length="4.67" shape="270.66,929.68,-2.44 269.46,928.88,-2.44 269.06,928.08,-2.44 269.46,927.28,-2.44 270.66,926.48,-2.44"/>
    </edge>
    <edge id=":AB_0" function="internal">
        <lane id=":AB_0_0" index="0" speed="3.65" length="4.67" shape="591.96,1247.78,-2.44 591.16,1248.98,-2.44 590.36,1249.38,-2.44 589.56,1248.98,-2.44 588.76,1247.78,-2.44"/>
    </edge>
    <edge id=":AC_0" function="internal">
        <lane id=":AC_0_0" index="0" speed="3.65" length="4.67" shape="910.06,926.48,-2.44 911.26,927.28,-2.44 911.66,928.08,-2.44 911.26,928.88,-2.44 910.06,929.68,-2.44"/>
    </edge>
    <edge id=":C_0" function="internal">
        <lane id=":C_0_0" index="0" speed="6.51" length="9.03" shape="588.76,311.39,4.52 588.41,308.94,4.55 587.36,307.19,4.58 585.61,306.14,4.60 583.16,305.79,4.64"/>
    </edge>
    <edge id=":C_1" function="internal">
        <lane id=":C_1_0" index="0" speed="20.00" length="14.40" shape="588.76,311.39,4.52 588.76,296.99,4.64"/>
    </edge>
    <edge id=":C_2" function="internal">
        <lane id=":C_2_0" index="0" speed="6.51" length="9.03" shape="597.56,305.79,4.64 595.11,306.14,4.61 593.36,307.19,4.58 592.31,308.94,4.56 591.96,311.39,4.53"/>
    </edge>
    <edge id=":C_3" function="internal">
        <lane id=":C_3_0" index="0" speed="20.00" length="14.40" shape="597.56,305.79,4.64 583.16,305.79,4.64"/>
    </edge>
    <edge id=":C_4" function="internal">
        <lane id=":C_4_0" index="0" speed="6.51" length="9.03" shape="591.96,296.99,4.64 592.31,299.44,4.64 593.36,301.19,4.64 595.11,302.24,4.64 597.56,302.59,4.64"/>
    </edge>
    <edge id=":C_5" function="internal">
        <lane id=":C_5_0" index="0" speed="20.00" length="14.40" shape="591.96,296.99,4.64 591.96,311.39,4.53"/>
    </edge>
    <edge id=":C_6" function="internal">
        <lane id=":C_6_0" index="0" speed="6.51" length="9.03" shape="583.16,302.59,4.64 585.61,302.24,4.64 587.36,301.19,4.64 588.41,299.44,4.64 588.76,296.99,4.64"/>
    </edge>
    <edge id=":C_7" function="internal">
        <lane id=":C_7_0" index="0" speed="20.00" length="14.40" shape="583.16,302.59,4.64 597.56,302.59,4.64"/>
    </edge>
    <edge id=":CA_0" function="internal">
        <lane id=":CA_0_0" index="0" speed="3.65" length="4.67" shape="894.55,302.59,4.64 895.75,303.39,4.64 896.15,304.19,4.64 895.75,304.99,4.64 894.55,305.79,4.64"/>
    </edge>
    <edge id=":CB_0" function="internal">
        <lane id=":CB_0_0" index="0" speed="3.65" length="4.67" shape="588.76,0.00,4.64 589.56,-1.20,4.64 590.36,-1.60,4.64 591.16,-1.20,4.64 591.96,0.00,4.64"/>
    </edge>
    <edge id=":CC_0" function="internal">
        <lane id=":CC_0_0" index="0" speed="3.65" length="4.67" shape="286.17,305.79,4.64 284.97,304.99,4.64 284.57,304.19,4.64 284.97,303.39,4.64 286.17,302.59,4.64"/>
    </edge>
    <edge id=":TL_0" function="internal">
        <lane id=":TL_0_0" index="0" speed="20.00" length="20.80" shape="588.76,612.38,-0.03 588.76,591.58"/>
    </edge>
    <edge id=":TL_1" function="internal">
        <lane id=":TL_1_0" index="0" speed="6.51" length="9.03" shape="591.96,591.58 592.31,594.03,0.01 593.36,595.78,0.02 595.11,596.83,0.03 597.56,597.18,0.04"/>
    </edge>
    <edge id=":TL_2" function="internal">
        <lane id=":TL_2_0" index="0" speed="20.00" length="20.80" shape="591.96,591.58 591.96,612.38,-0.03"/>
    </edge>
    <edge id=":TL_3" function="internal">
        <lane id=":TL_3_0" index="0" speed="6.51" length="9.03" shape="583.16,597.18,0.03 585.61,596.83,0.02 587.36,595.78,0.01 588.41,594.03,0.01 588.76,591.58"/>
    </edge>
    <edge id=":TL_4" function="internal">
        <lane id=":TL_4_0" index="0" speed="32.50" length="14.40" shape="583.16,597.18,0.03 597.56,597.18,0.04"/>
        <lane id=":TL_4_1" index="1" speed="32.50" length="14.40" shape="583.16,600.38,0.03 597.56,600.38,0.04"/>
        <lane id=":TL_4_2" index="2" speed="32.50" length="14.40" shape="583.16,603.58,0.03 597.56,603.58,0.04"/>
    </edge>
    <edge id=":TL_7" function="internal">
        <lane id=":TL_7_0" index="0" speed="7.33" length="11.73" shape="583.16,606.78,0.03 587.01,607.13,0.01 589.76,608.18,-0.01 591.41,609.93,-0.02 591.96,612.38,-0.03"/>
    </edge>

    <edge id="A2AA" from="A" to="AA" priority="-1">
        <lane id="A2AA_0" index="0" speed="20.00" length="312.50" shape="583.16,929.68,-2.44 270.66,929.68,-2.44"/>
    </edge>
    <edge id="A2AB" from="A" to="AB" priority="-1">
        <lane id="A2AB_0" index="0" speed="20.00" length="312.50" shape="591.96,935.28,-2.44 591.96,1247.78,-2.44"/>
    </edge>
    <edge id="A2AC" from="A" to="AC" priority="-1">
        <lane id="A2AC_0" index="0" speed="20.00" length="312.50" shape="597.56,926.48,-2.44 910.06,926.48,-2.44"/>
    </edge>
    <edge id="A2TL" from="A" to="TL" priority="-1">
        <lane id="A2TL_0" index="0" speed="20.00" length="308.51" shape="588.76,920.88,-2.38 588.76,612.38,-0.03"/>
    </edge>
    <edge id="AA2A" from="AA" to="A" priority="-1">
        <lane id="AA2A_0" index="0" speed="20.00" length="312.50" shape="270.66,926.48,-2.44 583.16,926.48,-2.44"/>
    </edge>
    <edge id="AB2A" from="AB" to="A" priority="-1">
        <lane id="AB2A_0" index="0" speed="20.00" length="312.50" shape="588.76,1247.78,-2.44 588.76,935.28,-2.44"/>
    </edge>
    <edge id="AC2A" from="AC" to="A" priority="-1">
        <lane id="AC2A_0" index="0" speed="20.00" length="312.50" shape="910.06,929.68,-2.44 597.56,929.68,-2.44"/>
    </edge>
    <edge id="BA2B" from="BA" to="B" priority="-1">
        <lane id="BA2B_0" index="0" speed="35.00" length="290.92" shape="884.38,913.60,1.77 884.38,622.68,1.77"/>
        <lane id="BA2B_1" index="1" speed="35.00" length="290.92" shape="887.58,913.60,1.77 887.58,622.68,1.77"/>
        <lane id="BA2B_2" index="2" speed="35.00" length="290.92" shape="890.78,913.60,1.77 890.78,622.68,1.77"/>
        <lane id="BA2B_3" index="3" speed="35.00" length="290.92" shape="893.98,913.60,1.77 893.98,622.68,1.77"/>
    </edge>
    <edge id="BB2B" from="BB" to="B" priority="-1">
        <lane id="BB2B_0" index="0" speed="35.00" length="290.92" shape="1200.80,619.58,1.77 909.88,619.58,1.77"/>
        <lane id="BB2B_1" index="1" speed="35.00" length="290.92" shape="1200.80,616.38,1.77 909.88,616.38,1.77"/>
        <lane id="BB2B_2" index="2" speed="35.00" length="290.92" shape="1200.80,613.18,1.77 909.88,613.18,1.77"/>
        <lane id="BB2B_3" index="3" speed="35.00" length="290.92" shape="1200.80,609.98,1.77 909.88,609.98,1.77"/>
    </edge>
    <edge id="BC2B" from="BC" to="B" priority="-1">
        <lane id="BC2B_0" index="0" speed="35.00" length="290.92" shape="906.78,303.16,1.77 906.78,594.08,1.77"/>
        <lane id="BC2B_1" index="1" speed="35.00" length="290.92" shape="903.58,303.16,1.77 903.58,594.08,1.77"/>
        <lane id="BC2B_2" index="2" speed="35.00" length="290.92" shape="900.38,303.16,1.77 900.38,594.08,1.77"/>
        <lane id="BC2B_3" index="3" speed="35.00" length="290.92" shape="897.18,303.16,1.77 897.18,594.08,1.77"/>
    </edge>
    <edge id="C2CA" from="C" to="CA" priority="-1">
        <lane id="C2CA_0" index="0" speed="20.00" length="296.99" shape="597.56,302.59,4.64 894.55,302.59,4.64"/>
    </edge>
    <edge id="C2CB" from="C" to="CB" priority="-1">
        <lane id="C2CB_0" index="0" speed="20.00" length="296.99" shape="588.76,296.99,4.64 588.76,0.00,4.64"/>
    </edge>
    <edge id="C2CC" from="C" to="CC" priority="-1">
        <lane id="C2CC_0" index="0" speed="20.00" length="296.99" shape="583.16,305.79,4.64 286.17,305.79,4.64"/>
    </edge>
    <edge id="C2TL" from="C" to="TL" priority="-1">
        <lane id="C2TL_0" index="0" speed="20.00" length="280.23" shape="591.96,311.39,4.53 591.96,591.58"/>
    </edge>
    <edge id="CA2C" from="CA" to="C" priority="-1">
        <lane id="CA2C_0" index="0" speed="20.00" length="296.99" shape="894.55,305.79,4.64 597.56,305.79,4.64"/>
    </edge>
    <edge id="CB2C" from="CB" to="C" priority="-1">
        <lane id="CB2C_0" index="0" speed="20.00" length="296.99" shape="591.96,0.00,4.64 591.96,296.99,4.64"/>
    </edge>
    <edge id="CC2C" from="CC" to="C" priority="-1">
        <lane id="CC2C_0" index="0" speed="20.00" length="296.99" shape="286.17,302.59,4.64 583.16,302.59,4.64"/>
    </edge>
    <edge id="D2DA" from="D" to="DA" priority="-1">
        <lane id="D2DA_0" index="0" speed="30.00" length="280.88" shape="283.98,594.08,1.17 283.98,313.20,1.17"/>
        <lane id="D2DA_1" index="1" speed="30.00" length="280.88" shape="287.18,594.08,1.17 287.18,313.20,1.17"/>
        <lane id="D2DA_2" index="2" speed="30.00" length="280.88" shape="290.38,594.08,1.17 290.38,313.20,1.17"/>
        <lane id="D2DA_3" index="3" speed="30.00" length="280.88" shape="293.58,594.08,1.17 293.58,313.20,1.17"/>
    </edge>
    <edge id="D2DB" from="D" to="DB" priority="-1">
        <lane id="D2DB_0" index="0" speed="30.00" length="280.88" shape="280.88,619.58,1.17 -0.00,619.58,1.17"/>
        <lane id="D2DB_1" index="1" speed="30.00" length="280.88" shape="280.88,616.38,1.17 -0.00,616.38,1.17"/>
        <lane id="D2DB_2" index="2" speed="30.00" length="280.88" shape="280.88,613.18,1.17 -0.00,613.18,1.17"/>
        <lane id="D2DB_3" index="3" speed="30.00" length="280.88" shape="280.88,609.98,1.17 -0.00,609.98,1.17"/>
    </edge>
    <edge id="D2DC" from="D" to="DC" priority="-1">
        <lane id="D2DC_0" index="0" speed="30.00" length="280.88" shape="306.38,622.68,1.17 306.38,903.56,1.17"/>
        <lane id="D2DC_1" index="1" speed="30.00" length="280.88" shape="303.18,622.68,1.17 303.18,903.56,1.17"/>
        <lane id="D2DC_2" index="2" speed="30.00" length="280.88" shape="299.98,622.68,1.17 299.98,903.56,1.17"/>
        <lane id="D2DC_3" index="3" speed="30.00" length="280.88" shape="296.78,622.68,1.17 296.78,903.56,1.17"/>
    </edge>
    <edge id="D2TL" from="D" to="TL" priority="-1">
        <lane id="D2TL_0" index="0" speed="30.00" length="273.68" shape="309.48,597.18,1.11 583.16,597.18,0.03"/>
        <lane id="D2TL_1" index="1" speed="30.00" length="273.68" shape="309.48,600.38,1.11 583.16,600.38,0.03"/>
        <lane id="D2TL_2" index="2" speed="30.00" length="273.68" shape="309.48,603.58,1.11 583.16,603.58,0.03"/>
        <lane id="D2TL_3" index="3" speed="30.00" length="273.68" shape="309.48,606.78,1.11 583.16,606.78,0.03"/>
    </edge>
    <edge id="TL2A" from="TL" to="A" priority="-1">
        <lane id="TL2A_0" index="0" speed="20.00" length="308.51" shape="591.96,612.38,-0.03 591.96,920.88,-2.38"/>
    </edge>
    <edge id="TL2B" from="TL" to="B" priority="-1">
        <lane id="TL2B_0" index="0" speed="35.00" length="283.72" shape="597.56,597.18,0.04 881.28,597.18,1.68"/>
        <lane id="TL2B_1" index="1" speed="35.00" length="283.72" shape="597.56,600.38,0.04 881.28,600.38,1.68"/>
        <lane id="TL2B_2" index="2" speed="35.00" length="283.72" shape="597.56,603.58,0.04 881.28,603.58,1.68"/>
        <lane id="TL2B_3" index="3" speed="35.00" length="283.72" shape="597.56,606.78,0.04 881.28,606.78,1.68"/>
    </edge>
    <edge id="TL2C" from="TL" to="C" priority="-1">
        <lane id="TL2C_0" index="0" speed="20.00" length="280.23" shape="588.76,591.58 588.76,311.39,4.52"/>
    </edge>

    <tlLogic id="A" type="static" programID="0" offset="0">
        <phase duration="40" state="GGrrGGrr"/>
        <phase duration="5"  state="yyrryyrr"/>
        <phase duration="40" state="rrGGrrGG"/>
        <phase duration="5"  state="rryyrryy"/>
    </tlLogic>
    <tlLogic id="AA" type="static" programID="0" offset="0">
        <phase duration="80" state="G"/>
        <phase duration="5"  state="y"/>
        <phase duration="5"  state="r"/>
    </tlLogic>
    <tlLogic id="AB" type="static" programID="0" offset="0">
        <phase duration="80" state="G"/>
        <phase duration="5"  state="y"/>
        <phase duration="5"  state="r"/>
    </tlLogic>
    <tlLogic id="AC" type="static" programID="0" offset="0">
        <phase duration="80" state="G"/>
        <phase duration="5"  state="y"/>
        <phase duration="5"  state="r"/>
    </tlLogic>
    <tlLogic id="C" type="static" programID="0" offset="0">
        <phase duration="40" state="GGrrGGrr"/>
        <phase duration="5"  state="yyrryyrr"/>
        <phase duration="40" state="rrGGrrGG"/>
        <phase duration="5"  state="rryyrryy"/>
    </tlLogic>
    <tlLogic id="CA" type="static" programID="0" offset="0">
        <phase duration="80" state="G"/>
        <phase duration="5"  state="y"/>
        <phase duration="5"  state="r"/>
    </tlLogic>
    <tlLogic id="CB" type="static" programID="0" offset="0">
        <phase duration="80" state="G"/>
        <phase duration="5"  state="y"/>
        <phase duration="5"  state="r"/>
    </tlLogic>
    <tlLogic id="CC" type="static" programID="0" offset="0">
        <phase duration="80" state="G"/>
        <phase duration="5"  state="y"/>
        <phase duration="5"  state="r"/>
    </tlLogic>
    <tlLogic id="TL" type="static" programID="0" offset="0">
        <phase duration="39" state="GGGsrrrr"/>
        <phase duration="6"  state="yyysrrrr"/>
        <phase duration="39" state="rsrGGGGG"/>
        <phase duration="6"  state="rsryyyyy"/>
    </tlLogic>

    <junction id="A" type="traffic_light" x="590.36" y="928.08" z="-2.44" incLanes="AB2A_0 AC2A_0 TL2A_0 AA2A_0" intLanes=":A_0_0 :A_1_0 :A_2_0 :A_3_0 :A_4_0 :A_5_0 :A_6_0 :A_7_0" shape="587.16,935.28,-2.44 593.56,935.28,-2.44 594.01,933.06,-2.44 594.56,932.28,-2.44 595.34,931.72,-2.44 596.34,931.39,-2.44 597.56,931.28,-2.44 597.56,924.88,-2.44 595.34,924.44,-2.44 594.56,923.88,-2.44 594.01,923.10,-2.44 593.67,922.10,-2.44 593.56,920.88,-2.44 587.16,920.88,-2.44 586.72,923.10,-2.44 586.16,923.88,-2.44 585.39,924.44,-2.44 584.39,924.77,-2.44 583.16,924.88,-2.44 583.16,931.28,-2.44 585.39,931.72,-2.44 586.16,932.28,-2.44 586.72,933.06,-2.44 587.05,934.06,-2.44">
        <request index="0" response="00000000" foes="00001000" cont="0"/>
        <request index="1" response="00000000" foes="11001000" cont="0"/>
        <request index="2" response="00100000" foes="00100000" cont="0"/>
        <request index="3" response="00100011" foes="00100011" cont="0"/>
        <request index="4" response="00000000" foes="10000000" cont="0"/>
        <request index="5" response="00000000" foes="10001100" cont="0"/>
        <request index="6" response="00000010" foes="00000010" cont="0"/>
        <request index="7" response="00110010" foes="00110010" cont="0"/>
    </junction>
    <junction id="AA" type="traffic_light" x="270.66" y="928.08" z="-2.44" incLanes="A2AA_0" intLanes=":AA_0_0" shape="270.66,928.08,-2.44 270.66,931.28,-2.44 270.66,928.08,-2.44">
        <request index="0" response="0" foes="0" cont="0"/>
    </junction>
    <junction id="AB" type="traffic_light" x="590.36" y="1247.78" z="-2.44" incLanes="A2AB_0" intLanes=":AB_0_0" shape="590.36,1247.78,-2.44 593.56,1247.78,-2.44 590.36,1247.78,-2.44">
        <request index="0" response="0" foes="0" cont="0"/>
    </junction>
    <junction id="AC" type="traffic_light" x="910.06" y="928.08" z="-2.44" incLanes="A2AC_0" intLanes=":AC_0_0" shape="910.06,928.08,-2.44 910.06,924.88,-2.44 910.06,928.08,-2.44">
        <request index="0" response="0" foes="0" cont="0"/>
    </junction>
    <junction id="B" type="dead_end" x="895.58" y="608.38" z="1.77" incLanes="BA2B_0 BA2B_1 BA2B_2 BA2B_3 BB2B_0 BB2B_1 BB2B_2 BB2B_3 BC2B_0 BC2B_1 BC2B_2 BC2B_3 TL2B_0 TL2B_1 TL2B_2 TL2B_3" intLanes="" shape="882.78,622.68,1.77 895.58,622.68,1.77 897.17,621.85,1.77 899.15,621.55,1.77 901.93,621.35,1.77 905.51,621.22,1.77 909.88,621.18,1.77 909.88,608.38,1.77 909.05,606.79,1.77 908.75,604.80,1.77 908.55,602.02,1.77 908.42,598.45,1.77 908.38,594.08,1.77 895.58,594.08,1.77 893.99,594.91,1.77 892.00,595.20,1.77 889.22,595.41,1.77 885.65,595.54,1.77 881.28,595.58,1.77 881.28,608.38,1.77 882.11,609.97,1.77 882.40,611.95,1.77 882.61,614.74,1.77 882.74,618.31,1.77"/>
    <junction id="BA" type="dead_end" x="895.58" y="913.60" z="1.77" incLanes="" intLanes="" shape="895.58,913.60,1.77 882.78,913.60,1.77"/>
    <junction id="BB" type="dead_end" x="1200.80" y="608.38" z="1.77" incLanes="" intLanes="" shape="1200.80,608.38,1.77 1200.80,621.18,1.77"/>
    <junction id="BC" type="dead_end" x="895.58" y="303.16" z="1.77" incLanes="" intLanes="" shape="895.58,303.16,1.77 908.38,303.16,1.77"/>
    <junction id="C" type="traffic_light" x="590.36" y="304.19" z="4.64" incLanes="TL2C_0 CA2C_0 CB2C_0 CC2C_0" intLanes=":C_0_0 :C_1_0 :C_2_0 :C_3_0 :C_4_0 :C_5_0 :C_6_0 :C_7_0" shape="587.16,311.39,4.64 593.56,311.39,4.64 594.01,309.17,4.64 594.56,308.39,4.64 595.34,307.83,4.64 596.34,307.50,4.64 597.56,307.39,4.64 597.56,300.99,4.64 595.34,300.55,4.64 594.56,299.99,4.64 594.01,299.21,4.64 593.67,298.21,4.64 593.56,296.99,4.64 587.16,296.99,4.64 586.72,299.21,4.64 586.16,299.99,4.64 585.39,300.55,4.64 584.39,300.88,4.64 583.16,300.99,4.64 583.16,307.39,4.64 585.39,307.83,4.64 586.16,308.39,4.64 586.72,309.17,4.64 587.05,310.17,4.64">
        <request index="0" response="00000000" foes="00001000" cont="0"/>
        <request index="1" response="00000000" foes="11001000" cont="0"/>
        <request index="2" response="00100000" foes="00100000" cont="0"/>
        <request index="3" response="00100011" foes="00100011" cont="0"/>
        <request index="4" response="00000000" foes="10000000" cont="0"/>
        <request index="5" response="00000000" foes="10001100" cont="0"/>
        <request index="6" response="00000010" foes="00000010" cont="0"/>
        <request index="7" response="00110010" foes="00110010" cont="0"/>
    </junction>
    <junction id="CA" type="traffic_light" x="894.55" y="304.19" z="4.64" incLanes="C2CA_0" intLanes=":CA_0_0" shape="894.55,304.19,4.64 894.55,300.99,4.64 894.55,304.19,4.64">
        <request index="0" response="0" foes="0" cont="0"/>
    </junction>
    <junction id="CB" type="traffic_light" x="590.36" y="0.00" z="4.64" incLanes="C2CB_0" intLanes=":CB_0_0" shape="590.36,0.00,4.64 587.16,0.00,4.64 590.36,0.00,4.64">
        <request index="0" response="0" foes="0" cont="0"/>
    </junction>
    <junction id="CC" type="traffic_light" x="286.17" y="304.19" z="4.64" incLanes="C2CC_0" intLanes=":CC_0_0" shape="286.17,304.19,4.64 286.17,307.39,4.64 286.17,304.19,4.64">
        <request index="0" response="0" foes="0" cont="0"/>
    </junction>
    <junction id="D" type="dead_end" x="295.18" y="608.38" z="1.17" incLanes="" intLanes="" shape="295.18,622.68,1.17 307.98,622.68,1.17 308.02,618.31,1.17 308.15,614.74,1.17 308.36,611.95,1.17 308.65,609.97,1.17 309.02,608.78,1.17 309.48,608.38,1.17 309.48,595.58,1.17 305.11,595.54,1.17 301.54,595.41,1.17 298.76,595.20,1.17 296.77,594.91,1.17 295.58,594.54,1.17 295.18,594.08,1.17 282.38,594.08,1.17 282.34,598.45,1.17 282.21,602.02,1.17 282.01,604.80,1.17 281.71,606.79,1.17 281.34,607.98,1.17 280.88,608.38,1.17 280.88,621.18,1.17 285.25,621.22,1.17 288.83,621.35,1.17 291.61,621.55,1.17 293.59,621.85,1.17 294.78,622.22,1.17"/>
    <junction id="DA" type="dead_end" x="295.18" y="313.20" z="1.17" incLanes="D2DA_0 D2DA_1 D2DA_2 D2DA_3" intLanes="" shape="282.38,313.20,1.17 295.18,313.20,1.17"/>
    <junction id="DB" type="dead_end" x="0.00" y="608.38" z="1.17" incLanes="D2DB_0 D2DB_1 D2DB_2 D2DB_3" intLanes="" shape="-0.00,621.18,1.17 -0.00,608.38,1.17"/>
    <junction id="DC" type="dead_end" x="295.18" y="903.56" z="1.17" incLanes="D2DC_0 D2DC_1 D2DC_2 D2DC_3" intLanes="" shape="307.98,903.56,1.17 295.18,903.56,1.17"/>
    <junction id="TL" type="traffic_light_right_on_red" x="590.36" y="608.38" incLanes="A2TL_0 C2TL_0 D2TL_0 D2TL_1 D2TL_2 D2TL_3" intLanes=":TL_0_0 :TL_1_0 :TL_2_0 :TL_3_0 :TL_4_0 :TL_4_1 :TL_4_2 :TL_7_0" shape="587.16,612.38 593.56,612.38 594.01,610.16 594.56,609.38 595.34,608.82 596.34,608.49 597.56,608.38 597.56,595.58 595.34,595.14 594.56,594.58 594.01,593.80 593.67,592.80 593.56,591.58 587.16,591.58 586.72,593.80 586.16,594.58 585.39,595.14 584.39,595.47 583.16,595.58 583.16,608.38 585.39,608.82 586.16,609.38 586.72,610.16 587.05,611.16">
        <request index="0" response="11111000" foes="11111000" cont="0"/>
        <request index="1" response="01110000" foes="01110000" cont="0"/>
        <request index="2" response="11110000" foes="11110000" cont="0"/>
        <request index="3" response="00000001" foes="00000001" cont="0"/>
        <request index="4" response="00000000" foes="00000111" cont="0"/>
        <request index="5" response="00000000" foes="00000111" cont="0"/>
        <request index="6" response="00000000" foes="00000111" cont="0"/>
        <request index="7" response="00000000" foes="00000101" cont="0"/>
    </junction>

    <connection from="A2AA" to="AA2A" fromLane="0" toLane="0" via=":AA_0_0" tl="AA" linkIndex="0" dir="t" state="O"/>
    <connection from="A2AB" to="AB2A" fromLane="0" toLane="0" via=":AB_0_0" tl="AB" linkIndex="0" dir="t" state="O"/>
    <connection from="A2AC" to="AC2A" fromLane="0" toLane="0" via=":AC_0_0" tl="AC" linkIndex="0" dir="t" state="O"/>
    <connection from="A2TL" to="TL2C" fromLane="0" toLane="0" via=":TL_0_0" tl="TL" linkIndex="0" dir="s" state="o"/>
    <connection from="AA2A" to="A2TL" fromLane="0" toLane="0" via=":A_6_0" tl="A" linkIndex="6" dir="r" state="o"/>
    <connection from="AA2A" to="A2AC" fromLane="0" toLane="0" via=":A_7_0" tl="A" linkIndex="7" dir="s" state="o"/>
    <connection from="AB2A" to="A2AA" fromLane="0" toLane="0" via=":A_0_0" tl="A" linkIndex="0" dir="r" state="O"/>
    <connection from="AB2A" to="A2TL" fromLane="0" toLane="0" via=":A_1_0" tl="A" linkIndex="1" dir="s" state="O"/>
    <connection from="AC2A" to="A2AB" fromLane="0" toLane="0" via=":A_2_0" tl="A" linkIndex="2" dir="r" state="o"/>
    <connection from="AC2A" to="A2AA" fromLane="0" toLane="0" via=":A_3_0" tl="A" linkIndex="3" dir="s" state="o"/>
    <connection from="C2CA" to="CA2C" fromLane="0" toLane="0" via=":CA_0_0" tl="CA" linkIndex="0" dir="t" state="O"/>
    <connection from="C2CB" to="CB2C" fromLane="0" toLane="0" via=":CB_0_0" tl="CB" linkIndex="0" dir="t" state="O"/>
    <connection from="C2CC" to="CC2C" fromLane="0" toLane="0" via=":CC_0_0" tl="CC" linkIndex="0" dir="t" state="O"/>
    <connection from="C2TL" to="TL2B" fromLane="0" toLane="0" via=":TL_1_0" tl="TL" linkIndex="1" dir="r" state="o"/>
    <connection from="C2TL" to="TL2A" fromLane="0" toLane="0" via=":TL_2_0" tl="TL" linkIndex="2" dir="s" state="o"/>
    <connection from="CA2C" to="C2TL" fromLane="0" toLane="0" via=":C_2_0" tl="C" linkIndex="2" dir="r" state="o"/>
    <connection from="CA2C" to="C2CC" fromLane="0" toLane="0" via=":C_3_0" tl="C" linkIndex="3" dir="s" state="o"/>
    <connection from="CB2C" to="C2CA" fromLane="0" toLane="0" via=":C_4_0" tl="C" linkIndex="4" dir="r" state="O"/>
    <connection from="CB2C" to="C2TL" fromLane="0" toLane="0" via=":C_5_0" tl="C" linkIndex="5" dir="s" state="O"/>
    <connection from="CC2C" to="C2CB" fromLane="0" toLane="0" via=":C_6_0" tl="C" linkIndex="6" dir="r" state="o"/>
    <connection from="CC2C" to="C2CA" fromLane="0" toLane="0" via=":C_7_0" tl="C" linkIndex="7" dir="s" state="o"/>
    <connection from="D2TL" to="TL2C" fromLane="0" toLane="0" via=":TL_3_0" tl="TL" linkIndex="3" dir="r" state="O"/>
    <connection from="D2TL" to="TL2B" fromLane="0" toLane="0" via=":TL_4_0" tl="TL" linkIndex="4" dir="s" state="O"/>
    <connection from="D2TL" to="TL2B" fromLane="1" toLane="1" via=":TL_4_1" tl="TL" linkIndex="5" dir="s" state="O"/>
    <connection from="D2TL" to="TL2B" fromLane="2" toLane="2" via=":TL_4_2" tl="TL" linkIndex="6" dir="s" state="O"/>
    <connection from="D2TL" to="TL2A" fromLane="3" toLane="0" via=":TL_7_0" tl="TL" linkIndex="7" dir="l" state="O"/>
    <connection from="TL2A" to="A2AC" fromLane="0" toLane="0" via=":A_4_0" tl="A" linkIndex="4" dir="r" state="O"/>
    <connection from="TL2A" to="A2AB" fromLane="0" toLane="0" via=":A_5_0" tl="A" linkIndex="5" dir="s" state="O"/>
    <connection from="TL2C" to="C2CC" fromLane="0" toLane="0" via=":C_0_0" tl="C" linkIndex="0" dir="r" state="O"/>
    <connection from="TL2C" to="C2CB" fromLane="0" toLane="0" via=":C_1_0" tl="C" linkIndex="1" dir="s" state="O"/>

    <connection from=":A_0" to="A2AA" fromLane="0" toLane="0" dir="r" state="M"/>
    <connection from=":A_1" to="A2TL" fromLane="0" toLane="0" dir="s" state="M"/>
    <connection from=":A_2" to="A2AB" fromLane="0" toLane="0" dir="r" state="M"/>
    <connection from=":A_3" to="A2AA" fromLane="0" toLane="0" dir="s" state="M"/>
    <connection from=":A_4" to="A2AC" fromLane="0" toLane="0" dir="r" state="M"/>
    <connection from=":A_5" to="A2AB" fromLane="0" toLane="0" dir="s" state="M"/>
    <connection from=":A_6" to="A2TL" fromLane="0" toLane="0" dir="r" state="M"/>
    <connection from=":A_7" to="A2AC" fromLane="0" toLane="0" dir="s" state="M"/>
    <connection from=":AA_0" to="AA2A" fromLane="0" toLane="0" dir="t" state="M"/>
    <connection from=":AB_0" to="AB2A" fromLane="0" toLane="0" dir="t" state="M"/>
    <connection from=":AC_0" to="AC2A" fromLane="0" toLane="0" dir="t" state="M"/>
    <connection from=":C_0" to="C2CC" fromLane="0" toLane="0" dir="r" state="M"/>
    <connection from=":C_1" to="C2CB" fromLane="0" toLane="0" dir="s" state="M"/>
    <connection from=":C_2" to="C2TL" fromLane="0" toLane="0" dir="r" state="M"/>
    <connection from=":C_3" to="C2CC" fromLane="0" toLane="0" dir="s" state="M"/>
    <connection from=":C_4" to="C2CA" fromLane="0" toLane="0" dir="r" state="M"/>
    <connection from=":C_5" to="C2TL" fromLane="0" toLane="0" dir="s" state="M"/>
    <connection from=":C_6" to="C2CB" fromLane="0" toLane="0" dir="r" state="M"/>
    <connection from=":C_7" to="C2CA" fromLane="0" toLane="0" dir="s" state="M"/>
    <connection from=":CA_0" to="CA2C" fromLane="0" toLane="0" dir="t" state="M"/>
    <connection from=":CB_0" to="CB2C" fromLane="0" toLane="0" dir="t" state="M"/>
    <connection from=":CC_0" to="CC2C" fromLane="0" toLane="0" dir="t" state="M"/>
    <connection from=":TL_0" to="TL2C" fromLane="0" toLane="0" dir="s" state="M"/>
    <connection from=":TL_1" to="TL2B" fromLane="0" toLane="0" dir="r" state="M"/>
    <connection from=":TL_2" to="TL2A" fromLane="0" toLane="0" dir="s" state="M"/>
    <connection from=":TL_3" to="TL2C" fromLane="0" toLane="0" dir="r" state="M"/>
    <connection from=":TL_4" to="TL2B" fromLane="0" toLane="0" dir="s" state="M"/>
    <connection from=":TL_4" to="TL2B" fromLane="1" toLane="1" dir="s" state="M"/>
    <connection from=":TL_4" to="TL2B" fromLane="2" toLane="2" dir="s" state="M"/>
    <connection from=":TL_7" to="TL2A" fromLane="0" toLane="0" dir="l" state="M"/>

</net>
