<?xml version="1.0" encoding="UTF-8"?>

<!-- generated on 2022-10-11 16:45:15 by Eclipse SUMO netconvert Version 1.14.1
<configuration xmlns:xsi="http://www.w3.org/2001/XMLSchema-instance" xsi:noNamespaceSchemaLocation="http://sumo.dlr.de/xsd/netconvertConfiguration.xsd">

    <input>
        <node-files value="../data/salt-lake-city/nodes.nod.xml"/>
        <edge-files value="../data/salt-lake-city/edges.edg.xml"/>
        <connection-files value="../data/salt-lake-city/connections.con.xml"/>
    </input>

    <output>
        <output-file value="../data/salt-lake-city/sumo/net/179.net.xml"/>
    </output>

    <tls_building>
        <tls.minor-left.max-speed value="1"/>
    </tls_building>

    <report>
        <verbose value="true"/>
    </report>

</configuration>
-->

<net version="1.9" junctionCornerDetail="5" limitTurnSpeed="5.50" xmlns:xsi="http://www.w3.org/2001/XMLSchema-instance" xsi:noNamespaceSchemaLocation="http://sumo.dlr.de/xsd/net_file.xsd">

    <location netOffset="637.54,618.83" convBoundary="0.00,0.00,1268.96,1241.56" origBoundary="-637.54,-618.83,631.42,622.73" projParameter="!"/>

    <edge id=":A_0" function="internal">
        <lane id=":A_0_0" index="0" speed="7.33" length="11.73" shape="632.74,943.79,-2.75 632.19,941.34,-2.75 630.54,939.59,-2.75 627.79,938.54,-2.75 623.94,938.19,-2.75"/>
    </edge>
    <edge id=":A_1" function="internal">
        <lane id=":A_1_0" index="0" speed="30.00" length="27.43" shape="632.74,943.79,-2.75 632.24,937.25,-2.72 631.14,931.58,-2.70 630.04,925.21,-2.67 629.54,916.59,-2.63"/>
        <lane id=":A_1_1" index="1" speed="30.00" length="27.43" shape="635.94,943.79,-2.75 635.44,937.25,-2.72 634.34,931.58,-2.70 633.24,925.21,-2.67 632.74,916.59,-2.63"/>
    </edge>
    <edge id=":A_3" function="internal">
        <lane id=":A_3_0" index="0" speed="10.36" length="10.84" shape="635.94,943.79,-2.75 636.89,937.14,-2.75 639.01,933.60,-2.75"/>
    </edge>
    <edge id=":A_16" function="internal">
        <lane id=":A_16_0" index="0" speed="10.36" length="13.67" shape="639.01,933.60,-2.75 639.74,932.39,-2.75 644.49,929.54,-2.75 651.14,928.59,-2.75"/>
    </edge>
    <edge id=":A_4" function="internal">
        <lane id=":A_4_0" index="0" speed="7.33" length="11.73" shape="651.14,934.99,-2.75 648.69,935.54,-2.75 646.94,937.19,-2.75 645.89,939.94,-2.75 645.54,943.79,-2.75"/>
    </edge>
    <edge id=":A_5" function="internal">
        <lane id=":A_5_0" index="0" speed="30.00" length="27.43" shape="651.14,934.99,-2.75 644.60,935.49,-2.75 638.92,936.59,-2.75 632.56,937.69,-2.75 623.94,938.19,-2.75"/>
        <lane id=":A_5_1" index="1" speed="30.00" length="27.43" shape="651.14,931.79,-2.75 644.60,932.29,-2.75 638.92,933.39,-2.75 632.56,934.49,-2.75 623.94,934.99,-2.75"/>
    </edge>
    <edge id=":A_7" function="internal">
        <lane id=":A_7_0" index="0" speed="10.36" length="10.84" shape="651.14,931.79,-2.75 644.49,930.84,-2.72 640.95,928.72,-2.70"/>
    </edge>
    <edge id=":A_17" function="internal">
        <lane id=":A_17_0" index="0" speed="10.36" length="13.67" shape="640.95,928.72,-2.70 639.74,927.99,-2.69 636.89,923.24,-2.66 635.94,916.59,-2.63"/>
    </edge>
    <edge id=":A_8" function="internal">
        <lane id=":A_8_0" index="0" speed="7.33" length="11.73" shape="642.34,916.59,-2.63 642.89,919.04,-2.66 644.54,920.79,-2.68 647.29,921.84,-2.71 651.14,922.19,-2.75"/>
    </edge>
    <edge id=":A_9" function="internal">
        <lane id=":A_9_0" index="0" speed="30.00" length="27.43" shape="642.34,916.59,-2.63 642.84,923.14,-2.66 643.94,928.81,-2.69 645.04,935.17,-2.71 645.54,943.79,-2.75"/>
        <lane id=":A_9_1" index="1" speed="30.00" length="27.43" shape="639.14,916.59,-2.63 639.64,923.14,-2.66 640.74,928.81,-2.69 641.84,935.17,-2.71 642.34,943.79,-2.75"/>
    </edge>
    <edge id=":A_11" function="internal">
        <lane id=":A_11_0" index="0" speed="10.36" length="10.84" shape="639.14,916.59,-2.63 638.19,923.24,-2.66 636.07,926.78,-2.69"/>
    </edge>
    <edge id=":A_18" function="internal">
        <lane id=":A_18_0" index="0" speed="10.36" length="13.67" shape="636.07,926.78,-2.69 635.34,927.99,-2.69 630.59,930.84,-2.72 623.94,931.79,-2.75"/>
    </edge>
    <edge id=":A_12" function="internal">
        <lane id=":A_12_0" index="0" speed="7.33" length="11.73" shape="623.94,925.39,-2.75 626.39,924.84,-2.73 628.14,923.19,-2.70 629.19,920.44,-2.67 629.54,916.59,-2.63"/>
    </edge>
    <edge id=":A_13" function="internal">
        <lane id=":A_13_0" index="0" speed="30.00" length="27.43" shape="623.94,925.39,-2.75 630.48,924.89,-2.75 636.15,923.79,-2.75 642.52,922.69,-2.75 651.14,922.19,-2.75"/>
        <lane id=":A_13_1" index="1" speed="30.00" length="27.43" shape="623.94,928.59,-2.75 630.48,928.09,-2.75 636.15,926.99,-2.75 642.52,925.89,-2.75 651.14,925.39,-2.75"/>
    </edge>
    <edge id=":A_15" function="internal">
        <lane id=":A_15_0" index="0" speed="10.36" length="10.84" shape="623.94,928.59,-2.75 630.59,929.54,-2.75 634.13,931.67,-2.75"/>
    </edge>
    <edge id=":A_19" function="internal">
        <lane id=":A_19_0" index="0" speed="10.36" length="13.67" shape="634.13,931.67,-2.75 635.34,932.39,-2.75 638.19,937.14,-2.75 639.14,943.79,-2.75"/>
    </edge>
    <edge id=":AA_0" function="internal">
        <lane id=":AA_0_0" index="0" speed="3.65" length="4.67" shape="326.17,931.79,-2.75 324.97,930.99,-2.75 324.57,930.19,-2.75 324.97,929.39,-2.75 326.17,928.59,-2.75"/>
    </edge>
    <edge id=":AB_0" function="internal">
        <lane id=":AB_0_0" index="0" speed="3.65" length="4.67" shape="639.14,1241.56,-2.75 638.34,1242.76,-2.75 637.54,1243.16,-2.75 636.74,1242.76,-2.75 635.94,1241.56,-2.75"/>
    </edge>
    <edge id=":AC_0" function="internal">
        <lane id=":AC_0_0" index="0" speed="3.65" length="4.67" shape="948.90,928.59,-2.75 950.10,929.39,-2.75 950.50,930.19,-2.75 950.10,930.99,-2.75 948.90,931.79,-2.75"/>
    </edge>
    <edge id=":B_0" function="internal">
        <lane id=":B_0_0" index="0" speed="6.51" length="9.03" shape="948.45,629.23,-6.74 948.10,626.78,-6.74 947.05,625.03,-6.74 945.30,623.98,-6.74 942.85,623.63,-6.74"/>
    </edge>
    <edge id=":B_1" function="internal">
        <lane id=":B_1_0" index="0" speed="25.00" length="20.80" shape="948.45,629.23,-6.74 948.45,608.43,-6.74"/>
        <lane id=":B_1_1" index="1" speed="25.00" length="20.80" shape="951.65,629.23,-6.74 951.65,608.43,-6.74"/>
    </edge>
    <edge id=":B_3" function="internal">
        <lane id=":B_3_0" index="0" speed="9.26" length="5.01" shape="951.65,629.23,-6.74 952.36,624.27,-6.74"/>
    </edge>
    <edge id=":B_16" function="internal">
        <lane id=":B_16_0" index="0" speed="9.26" length="14.34" shape="952.36,624.27,-6.74 952.40,623.98,-6.74 954.65,620.23,-6.74 958.40,617.98,-6.74 963.65,617.23,-6.74"/>
    </edge>
    <edge id=":B_4" function="internal">
        <lane id=":B_4_0" index="0" speed="6.51" length="9.03" shape="963.65,623.63,-6.74 961.20,623.98,-6.74 959.45,625.03,-6.74 958.40,626.78,-6.74 958.05,629.23,-6.74"/>
    </edge>
    <edge id=":B_5" function="internal">
        <lane id=":B_5_0" index="0" speed="25.00" length="20.80" shape="963.65,623.63,-6.74 942.85,623.63,-6.74"/>
        <lane id=":B_5_1" index="1" speed="25.00" length="20.80" shape="963.65,620.43,-6.74 942.85,620.43,-6.74"/>
    </edge>
    <edge id=":B_7" function="internal">
        <lane id=":B_7_0" index="0" speed="9.26" length="5.01" shape="963.65,620.43,-6.74 958.69,619.72,-6.74"/>
    </edge>
    <edge id=":B_17" function="internal">
        <lane id=":B_17_0" index="0" speed="9.26" length="14.34" shape="958.69,619.72,-6.74 958.40,619.68,-6.74 954.65,617.43,-6.74 952.40,613.68,-6.74 951.65,608.43,-6.74"/>
    </edge>
    <edge id=":B_8" function="internal">
        <lane id=":B_8_0" index="0" speed="6.51" length="9.03" shape="958.05,608.43,-6.74 958.40,610.88,-6.74 959.45,612.63,-6.74 961.20,613.68,-6.74 963.65,614.03,-6.74"/>
    </edge>
    <edge id=":B_9" function="internal">
        <lane id=":B_9_0" index="0" speed="25.00" length="20.80" shape="958.05,608.43,-6.74 958.05,629.23,-6.74"/>
        <lane id=":B_9_1" index="1" speed="25.00" length="20.80" shape="954.85,608.43,-6.74 954.85,629.23,-6.74"/>
    </edge>
    <edge id=":B_11" function="internal">
        <lane id=":B_11_0" index="0" speed="9.26" length="5.01" shape="954.85,608.43,-6.74 954.14,613.39,-6.74"/>
    </edge>
    <edge id=":B_18" function="internal">
        <lane id=":B_18_0" index="0" speed="9.26" length="14.34" shape="954.14,613.39,-6.74 954.10,613.68,-6.74 951.85,617.43,-6.74 948.10,619.68,-6.74 942.85,620.43,-6.74"/>
    </edge>
    <edge id=":B_12" function="internal">
        <lane id=":B_12_0" index="0" speed="6.51" length="9.03" shape="942.85,614.03,-6.74 945.30,613.68,-6.74 947.05,612.63,-6.74 948.10,610.88,-6.74 948.45,608.43,-6.74"/>
    </edge>
    <edge id=":B_13" function="internal">
        <lane id=":B_13_0" index="0" speed="25.00" length="20.80" shape="942.85,614.03,-6.74 963.65,614.03,-6.74"/>
        <lane id=":B_13_1" index="1" speed="25.00" length="20.80" shape="942.85,617.23,-6.74 963.65,617.23,-6.74"/>
    </edge>
    <edge id=":B_15" function="internal">
        <lane id=":B_15_0" index="0" speed="9.26" length="5.01" shape="942.85,617.23,-6.74 947.81,617.94,-6.74"/>
    </edge>
    <edge id=":B_19" function="internal">
        <lane id=":B_19_0" index="0" speed="9.26" length="14.34" shape="947.81,617.94,-6.74 948.10,617.98,-6.74 951.85,620.23,-6.74 954.10,623.98,-6.74 954.85,629.23,-6.74"/>
    </edge>
    <edge id=":BA_0" function="internal">
        <lane id=":BA_0_0" index="0" speed="3.65" length="4.67" shape="954.85,934.54,-6.74 954.05,935.74,-6.74 953.25,936.14,-6.74 952.45,935.74,-6.74 951.65,934.54,-6.74"/>
    </edge>
    <edge id=":BB_0" function="internal">
        <lane id=":BB_0_0" index="0" speed="3.65" length="4.67" shape="1268.96,617.23,-6.74 1270.16,618.03,-6.74 1270.56,618.83,-6.74 1270.16,619.63,-6.74 1268.96,620.43,-6.74"/>
    </edge>
    <edge id=":BC_0" function="internal">
        <lane id=":BC_0_0" index="0" speed="3.65" length="4.67" shape="951.65,303.12,-6.74 952.45,301.92,-6.74 953.25,301.52,-6.74 954.05,301.92,-6.74 954.85,303.12,-6.74"/>
    </edge>
    <edge id=":C_0" function="internal">
        <lane id=":C_0_0" index="0" speed="6.51" length="9.03" shape="632.74,319.81,3.19 632.39,317.36,3.22 631.34,315.61,3.25 629.59,314.56,3.27 627.14,314.21,3.30"/>
    </edge>
    <edge id=":C_1" function="internal">
        <lane id=":C_1_0" index="0" speed="30.00" length="20.80" shape="632.74,319.81,3.19 632.74,299.01,3.30"/>
        <lane id=":C_1_1" index="1" speed="30.00" length="20.80" shape="635.94,319.81,3.19 635.94,299.01,3.30"/>
    </edge>
    <edge id=":C_3" function="internal">
        <lane id=":C_3_0" index="0" speed="9.26" length="5.01" shape="635.94,319.81,3.19 636.65,314.85,3.22"/>
    </edge>
    <edge id=":C_16" function="internal">
        <lane id=":C_16_0" index="0" speed="9.26" length="14.34" shape="636.65,314.85,3.22 636.69,314.56,3.22 638.94,310.81,3.25 642.69,308.56,3.27 647.94,307.81,3.30"/>
    </edge>
    <edge id=":C_4" function="internal">
        <lane id=":C_4_0" index="0" speed="6.51" length="9.03" shape="647.94,314.21,3.30 645.49,314.56,3.27 643.74,315.61,3.25 642.69,317.36,3.22 642.34,319.81,3.19"/>
    </edge>
    <edge id=":C_5" function="internal">
        <lane id=":C_5_0" index="0" speed="30.00" length="20.80" shape="647.94,314.21,3.30 627.14,314.21,3.30"/>
        <lane id=":C_5_1" index="1" speed="30.00" length="20.80" shape="647.94,311.01,3.30 627.14,311.01,3.30"/>
    </edge>
    <edge id=":C_7" function="internal">
        <lane id=":C_7_0" index="0" speed="9.26" length="5.01" shape="647.94,311.01,3.30 642.98,310.31,3.30"/>
    </edge>
    <edge id=":C_17" function="internal">
        <lane id=":C_17_0" index="0" speed="9.26" length="14.34" shape="642.98,310.31,3.30 642.69,310.26,3.30 638.94,308.01,3.30 636.69,304.26,3.30 635.94,299.01,3.30"/>
    </edge>
    <edge id=":C_8" function="internal">
        <lane id=":C_8_0" index="0" speed="6.51" length="9.03" shape="642.34,299.01,3.30 642.69,301.46,3.30 643.74,303.21,3.30 645.49,304.26,3.30 647.94,304.61,3.30"/>
    </edge>
    <edge id=":C_9" function="internal">
        <lane id=":C_9_0" index="0" speed="30.00" length="20.80" shape="642.34,299.01,3.30 642.34,319.81,3.19"/>
        <lane id=":C_9_1" index="1" speed="30.00" length="20.80" shape="639.14,299.01,3.30 639.14,319.81,3.19"/>
    </edge>
    <edge id=":C_11" function="internal">
        <lane id=":C_11_0" index="0" speed="9.26" length="5.01" shape="639.14,299.01,3.30 638.43,303.98,3.30"/>
    </edge>
    <edge id=":C_18" function="internal">
        <lane id=":C_18_0" index="0" speed="9.26" length="14.34" shape="638.43,303.98,3.30 638.39,304.26,3.30 636.14,308.01,3.30 632.39,310.26,3.30 627.14,311.01,3.30"/>
    </edge>
    <edge id=":C_12" function="internal">
        <lane id=":C_12_0" index="0" speed="6.51" length="9.03" shape="627.14,304.61,3.30 629.59,304.26,3.30 631.34,303.21,3.30 632.39,301.46,3.30 632.74,299.01,3.30"/>
    </edge>
    <edge id=":C_13" function="internal">
        <lane id=":C_13_0" index="0" speed="30.00" length="20.80" shape="627.14,304.61,3.30 647.94,304.61,3.30"/>
        <lane id=":C_13_1" index="1" speed="30.00" length="20.80" shape="627.14,307.81,3.30 647.94,307.81,3.30"/>
    </edge>
    <edge id=":C_15" function="internal">
        <lane id=":C_15_0" index="0" speed="9.26" length="5.01" shape="627.14,307.81,3.30 632.10,308.52,3.27"/>
    </edge>
    <edge id=":C_19" function="internal">
        <lane id=":C_19_0" index="0" speed="9.26" length="14.34" shape="632.10,308.52,3.27 632.39,308.56,3.27 636.14,310.81,3.25 638.39,314.56,3.22 639.14,319.81,3.19"/>
    </edge>
    <edge id=":CA_0" function="internal">
        <lane id=":CA_0_0" index="0" speed="3.65" length="4.67" shape="946.95,307.81,3.30 948.15,308.61,3.30 948.55,309.41,3.30 948.15,310.21,3.30 946.95,311.01,3.30"/>
    </edge>
    <edge id=":CB_0" function="internal">
        <lane id=":CB_0_0" index="0" speed="3.65" length="4.67" shape="635.94,0.00,3.30 636.74,-1.20,3.30 637.54,-1.60,3.30 638.34,-1.20,3.30 639.14,0.00,3.30"/>
    </edge>
    <edge id=":CC_0" function="internal">
        <lane id=":CC_0_0" index="0" speed="3.65" length="4.67" shape="328.12,311.01,3.30 326.92,310.21,3.30 326.52,309.41,3.30 326.92,308.61,3.30 328.12,307.81,3.30"/>
    </edge>
    <edge id=":D_0" function="internal">
        <lane id=":D_0_0" index="0" speed="6.51" length="9.03" shape="313.97,629.23,-21.26 313.62,626.78,-21.26 312.57,625.03,-21.26 310.82,623.98,-21.26 308.37,623.63,-21.26"/>
    </edge>
    <edge id=":D_1" function="internal">
        <lane id=":D_1_0" index="0" speed="30.00" length="20.80" shape="313.97,629.23,-21.26 313.97,608.43,-21.26"/>
        <lane id=":D_1_1" index="1" speed="30.00" length="20.80" shape="317.17,629.23,-21.26 317.17,608.43,-21.26"/>
    </edge>
    <edge id=":D_3" function="internal">
        <lane id=":D_3_0" index="0" speed="9.26" length="5.01" shape="317.17,629.23,-21.26 317.88,624.27,-21.26"/>
    </edge>
    <edge id=":D_16" function="internal">
        <lane id=":D_16_0" index="0" speed="9.26" length="14.34" shape="317.88,624.27,-21.26 317.92,623.98,-21.26 320.17,620.23,-21.26 323.92,617.98,-21.26 329.17,617.23,-21.26"/>
    </edge>
    <edge id=":D_4" function="internal">
        <lane id=":D_4_0" index="0" speed="6.51" length="9.03" shape="329.17,623.63,-21.26 326.72,623.98,-21.26 324.97,625.03,-21.26 323.92,626.78,-21.26 323.57,629.23,-21.26"/>
    </edge>
    <edge id=":D_5" function="internal">
        <lane id=":D_5_0" index="0" speed="30.00" length="20.80" shape="329.17,623.63,-21.26 308.37,623.63,-21.26"/>
        <lane id=":D_5_1" index="1" speed="30.00" length="20.80" shape="329.17,620.43,-21.26 308.37,620.43,-21.26"/>
    </edge>
    <edge id=":D_7" function="internal">
        <lane id=":D_7_0" index="0" speed="9.26" length="5.01" shape="329.17,620.43,-21.26 324.21,619.72,-21.26"/>
    </edge>
    <edge id=":D_17" function="internal">
        <lane id=":D_17_0" index="0" speed="9.26" length="14.34" shape="324.21,619.72,-21.26 323.92,619.68,-21.26 320.17,617.43,-21.26 317.92,613.68,-21.26 317.17,608.43,-21.26"/>
    </edge>
    <edge id=":D_8" function="internal">
        <lane id=":D_8_0" index="0" speed="6.51" length="9.03" shape="323.57,608.43,-21.26 323.92,610.88,-21.26 324.97,612.63,-21.26 326.72,613.68,-21.26 329.17,614.03,-21.26"/>
    </edge>
    <edge id=":D_9" function="internal">
        <lane id=":D_9_0" index="0" speed="30.00" length="20.80" shape="323.57,608.43,-21.26 323.57,629.23,-21.26"/>
        <lane id=":D_9_1" index="1" speed="30.00" length="20.80" shape="320.37,608.43,-21.26 320.37,629.23,-21.26"/>
    </edge>
    <edge id=":D_11" function="internal">
        <lane id=":D_11_0" index="0" speed="9.26" length="5.01" shape="320.37,608.43,-21.26 319.66,613.39,-21.26"/>
    </edge>
    <edge id=":D_18" function="internal">
        <lane id=":D_18_0" index="0" speed="9.26" length="14.34" shape="319.66,613.39,-21.26 319.62,613.68,-21.26 317.37,617.43,-21.26 313.62,619.68,-21.26 308.37,620.43,-21.26"/>
    </edge>
    <edge id=":D_12" function="internal">
        <lane id=":D_12_0" index="0" speed="6.51" length="9.03" shape="308.37,614.03,-21.26 310.82,613.68,-21.26 312.57,612.63,-21.26 313.62,610.88,-21.26 313.97,608.43,-21.26"/>
    </edge>
    <edge id=":D_13" function="internal">
        <lane id=":D_13_0" index="0" speed="30.00" length="20.80" shape="308.37,614.03,-21.26 329.17,614.03,-21.26"/>
        <lane id=":D_13_1" index="1" speed="30.00" length="20.80" shape="308.37,617.23,-21.26 329.17,617.23,-21.26"/>
    </edge>
    <edge id=":D_15" function="internal">
        <lane id=":D_15_0" index="0" speed="9.26" length="5.01" shape="308.37,617.23,-21.26 313.33,617.94,-21.26"/>
    </edge>
    <edge id=":D_19" function="internal">
        <lane id=":D_19_0" index="0" speed="9.26" length="14.34" shape="313.33,617.94,-21.26 313.62,617.98,-21.26 317.37,620.23,-21.26 319.62,623.98,-21.26 320.37,629.23,-21.26"/>
    </edge>
    <edge id=":DA_0" function="internal">
        <lane id=":DA_0_0" index="0" speed="3.65" length="4.67" shape="317.17,300.06,-21.26 317.97,298.86,-21.26 318.77,298.46,-21.26 319.57,298.86,-21.26 320.37,300.06,-21.26"/>
    </edge>
    <edge id=":DB_0" function="internal">
        <lane id=":DB_0_0" index="0" speed="3.65" length="4.67" shape="-0.00,620.43,-21.26 -1.20,619.63,-21.26 -1.60,618.83,-21.26 -1.20,618.03,-21.26 0.00,617.23,-21.26"/>
    </edge>
    <edge id=":DC_0" function="internal">
        <lane id=":DC_0_0" index="0" speed="3.65" length="4.67" shape="320.37,937.60,-21.26 319.57,938.80,-21.26 318.77,939.20,-21.26 317.97,938.80,-21.26 317.17,937.60,-21.26"/>
    </edge>
    <edge id=":TL_0" function="internal">
        <lane id=":TL_0_0" index="0" speed="6.51" length="9.03" shape="629.54,629.23,-0.09 629.19,626.78,-0.07 628.14,625.03,-0.05 626.39,623.98,-0.03 623.94,623.63"/>
    </edge>
    <edge id=":TL_1" function="internal">
        <lane id=":TL_1_0" index="0" speed="30.00" length="21.12" shape="629.54,629.23,-0.09 630.04,622.95,-0.03 631.14,618.63,0.01 632.24,614.42,0.05 632.74,608.43,0.11"/>
        <lane id=":TL_1_1" index="1" speed="30.00" length="21.12" shape="632.74,629.23,-0.09 633.24,622.95,-0.03 634.34,618.63,0.01 635.44,614.42,0.05 635.94,608.43,0.11"/>
    </edge>
    <edge id=":TL_3" function="internal">
        <lane id=":TL_3_0" index="0" speed="9.26" length="5.01" shape="635.94,629.23,-0.09 636.65,624.27,-0.07"/>
    </edge>
    <edge id=":TL_16" function="internal">
        <lane id=":TL_16_0" index="0" speed="9.26" length="14.34" shape="636.65,624.27,-0.07 636.69,623.98,-0.07 638.94,620.23,-0.05 642.69,617.98,-0.03 647.94,617.23"/>
    </edge>
    <edge id=":TL_4" function="internal">
        <lane id=":TL_4_0" index="0" speed="6.51" length="9.03" shape="647.94,623.63 645.49,623.98,-0.03 643.74,625.03,-0.05 642.69,626.78,-0.07 642.34,629.23,-0.09"/>
    </edge>
    <edge id=":TL_5" function="internal">
        <lane id=":TL_5_0" index="0" speed="27.50" length="24.00" shape="647.94,623.63 623.94,623.63"/>
        <lane id=":TL_5_1" index="1" speed="27.50" length="24.00" shape="647.94,620.43 623.94,620.43"/>
    </edge>
    <edge id=":TL_7" function="internal">
        <lane id=":TL_7_0" index="0" speed="9.26" length="5.01" shape="647.94,620.43 642.98,619.72,0.03"/>
    </edge>
    <edge id=":TL_17" function="internal">
        <lane id=":TL_17_0" index="0" speed="9.26" length="14.34" shape="642.98,619.72,0.03 642.69,619.68,0.03 638.94,617.43,0.06 636.69,613.68,0.08 635.94,608.43,0.11"/>
    </edge>
    <edge id=":TL_8" function="internal">
        <lane id=":TL_8_0" index="0" speed="6.51" length="9.03" shape="642.34,608.43,0.11 642.69,610.88,0.08 643.74,612.63,0.06 645.49,613.68,0.03 647.94,614.03"/>
    </edge>
    <edge id=":TL_9" function="internal">
        <lane id=":TL_9_0" index="0" speed="30.00" length="20.80" shape="642.34,608.43,0.11 642.34,629.23,-0.09"/>
        <lane id=":TL_9_1" index="1" speed="30.00" length="20.80" shape="639.14,608.43,0.11 639.14,629.23,-0.09"/>
    </edge>
    <edge id=":TL_11" function="internal">
        <lane id=":TL_11_0" index="0" speed="9.84" length="5.50" shape="639.14,608.43,0.11 638.19,613.68,0.08 638.09,613.81,0.08"/>
    </edge>
    <edge id=":TL_18" function="internal">
        <lane id=":TL_18_0" index="0" speed="9.84" length="16.49" shape="638.09,613.81,0.08 635.34,617.43,0.06 630.59,619.68,0.03 623.94,620.43"/>
    </edge>
    <edge id=":TL_12" function="internal">
        <lane id=":TL_12_0" index="0" speed="7.33" length="11.73" shape="623.94,614.03 627.79,613.68,0.04 630.54,612.63,0.06 632.19,610.88,0.09 632.74,608.43,0.11"/>
    </edge>
    <edge id=":TL_13" function="internal">
        <lane id=":TL_13_0" index="0" speed="27.50" length="24.00" shape="623.94,614.03 647.94,614.03"/>
        <lane id=":TL_13_1" index="1" speed="27.50" length="24.00" shape="623.94,617.23 647.94,617.23"/>
    </edge>
    <edge id=":TL_15" function="internal">
        <lane id=":TL_15_0" index="0" speed="9.84" length="6.30" shape="623.94,617.23 630.20,617.93,-0.03"/>
    </edge>
    <edge id=":TL_19" function="internal">
        <lane id=":TL_19_0" index="0" speed="9.84" length="15.70" shape="630.20,617.93,-0.03 630.59,617.98,-0.03 635.34,620.23,-0.05 638.19,623.98,-0.07 639.14,629.23,-0.09"/>
    </edge>

    <edge id="A2AA" from="A" to="AA" priority="-1">
        <lane id="A2AA_0" index="0" speed="30.00" length="297.76" shape="623.94,938.19,-2.75 326.17,938.19,-2.75"/>
        <lane id="A2AA_1" index="1" speed="30.00" length="297.76" shape="623.94,934.99,-2.75 326.17,934.99,-2.75"/>
        <lane id="A2AA_2" index="2" speed="30.00" length="297.76" shape="623.94,931.79,-2.75 326.17,931.79,-2.75"/>
    </edge>
    <edge id="A2AB" from="A" to="AB" priority="-1">
        <lane id="A2AB_0" index="0" speed="30.00" length="297.76" shape="645.54,943.79,-2.75 645.54,1241.56,-2.75"/>
        <lane id="A2AB_1" index="1" speed="30.00" length="297.76" shape="642.34,943.79,-2.75 642.34,1241.56,-2.75"/>
        <lane id="A2AB_2" index="2" speed="30.00" length="297.76" shape="639.14,943.79,-2.75 639.14,1241.56,-2.75"/>
    </edge>
    <edge id="A2AC" from="A" to="AC" priority="-1">
        <lane id="A2AC_0" index="0" speed="30.00" length="297.76" shape="651.14,922.19,-2.75 948.90,922.19,-2.75"/>
        <lane id="A2AC_1" index="1" speed="30.00" length="297.76" shape="651.14,925.39,-2.75 948.90,925.39,-2.75"/>
        <lane id="A2AC_2" index="2" speed="30.00" length="297.76" shape="651.14,928.59,-2.75 948.90,928.59,-2.75"/>
    </edge>
    <edge id="A2TL" from="A" to="TL" priority="-1">
        <lane id="A2TL_0" index="0" speed="30.00" length="287.38" shape="629.54,916.59,-2.63 629.54,629.23,-0.09"/>
        <lane id="A2TL_1" index="1" speed="30.00" length="287.38" shape="632.74,916.59,-2.63 632.74,629.23,-0.09"/>
        <lane id="A2TL_2" index="2" speed="30.00" length="287.38" shape="635.94,916.59,-2.63 635.94,629.23,-0.09"/>
    </edge>
    <edge id="AA2A" from="AA" to="A" priority="-1">
        <lane id="AA2A_0" index="0" speed="30.00" length="297.76" shape="326.17,925.39,-2.75 623.94,925.39,-2.75"/>
        <lane id="AA2A_1" index="1" speed="30.00" length="297.76" shape="326.17,928.59,-2.75 623.94,928.59,-2.75"/>
    </edge>
    <edge id="AB2A" from="AB" to="A" priority="-1">
        <lane id="AB2A_0" index="0" speed="30.00" length="297.76" shape="632.74,1241.56,-2.75 632.74,943.79,-2.75"/>
        <lane id="AB2A_1" index="1" speed="30.00" length="297.76" shape="635.94,1241.56,-2.75 635.94,943.79,-2.75"/>
    </edge>
    <edge id="AC2A" from="AC" to="A" priority="-1">
        <lane id="AC2A_0" index="0" speed="30.00" length="297.76" shape="948.90,934.99,-2.75 651.14,934.99,-2.75"/>
        <lane id="AC2A_1" index="1" speed="30.00" length="297.76" shape="948.90,931.79,-2.75 651.14,931.79,-2.75"/>
    </edge>
    <edge id="B2BA" from="B" to="BA" priority="-1">
        <lane id="B2BA_0" index="0" speed="25.00" length="305.31" shape="958.05,629.23,-6.74 958.05,934.54,-6.74"/>
        <lane id="B2BA_1" index="1" speed="25.00" length="305.31" shape="954.85,629.23,-6.74 954.85,934.54,-6.74"/>
    </edge>
    <edge id="B2BB" from="B" to="BB" priority="-1">
        <lane id="B2BB_0" index="0" speed="25.00" length="305.31" shape="963.65,614.03,-6.74 1268.96,614.03,-6.74"/>
        <lane id="B2BB_1" index="1" speed="25.00" length="305.31" shape="963.65,617.23,-6.74 1268.96,617.23,-6.74"/>
    </edge>
    <edge id="B2BC" from="B" to="BC" priority="-1">
        <lane id="B2BC_0" index="0" speed="25.00" length="305.31" shape="948.45,608.43,-6.74 948.45,303.12,-6.74"/>
        <lane id="B2BC_1" index="1" speed="25.00" length="305.31" shape="951.65,608.43,-6.74 951.65,303.12,-6.74"/>
    </edge>
    <edge id="B2TL" from="B" to="TL" priority="-1">
        <lane id="B2TL_0" index="0" speed="25.00" length="294.99" shape="942.85,623.63,-6.74 647.94,623.63"/>
        <lane id="B2TL_1" index="1" speed="25.00" length="294.99" shape="942.85,620.43,-6.74 647.94,620.43"/>
    </edge>
    <edge id="BA2B" from="BA" to="B" priority="-1">
        <lane id="BA2B_0" index="0" speed="25.00" length="305.31" shape="948.45,934.54,-6.74 948.45,629.23,-6.74"/>
        <lane id="BA2B_1" index="1" speed="25.00" length="305.31" shape="951.65,934.54,-6.74 951.65,629.23,-6.74"/>
    </edge>
    <edge id="BB2B" from="BB" to="B" priority="-1">
        <lane id="BB2B_0" index="0" speed="25.00" length="305.31" shape="1268.96,623.63,-6.74 963.65,623.63,-6.74"/>
        <lane id="BB2B_1" index="1" speed="25.00" length="305.31" shape="1268.96,620.43,-6.74 963.65,620.43,-6.74"/>
    </edge>
    <edge id="BC2B" from="BC" to="B" priority="-1">
        <lane id="BC2B_0" index="0" speed="25.00" length="305.31" shape="958.05,303.12,-6.74 958.05,608.43,-6.74"/>
        <lane id="BC2B_1" index="1" speed="25.00" length="305.31" shape="954.85,303.12,-6.74 954.85,608.43,-6.74"/>
    </edge>
    <edge id="C2CA" from="C" to="CA" priority="-1">
        <lane id="C2CA_0" index="0" speed="30.00" length="299.01" shape="647.94,304.61,3.30 946.95,304.61,3.30"/>
        <lane id="C2CA_1" index="1" speed="30.00" length="299.01" shape="647.94,307.81,3.30 946.95,307.81,3.30"/>
    </edge>
    <edge id="C2CB" from="C" to="CB" priority="-1">
        <lane id="C2CB_0" index="0" speed="30.00" length="299.01" shape="632.74,299.01,3.30 632.74,0.00,3.30"/>
        <lane id="C2CB_1" index="1" speed="30.00" length="299.01" shape="635.94,299.01,3.30 635.94,0.00,3.30"/>
    </edge>
    <edge id="C2CC" from="C" to="CC" priority="-1">
        <lane id="C2CC_0" index="0" speed="30.00" length="299.01" shape="627.14,314.21,3.30 328.12,314.21,3.30"/>
        <lane id="C2CC_1" index="1" speed="30.00" length="299.01" shape="627.14,311.01,3.30 328.12,311.01,3.30"/>
    </edge>
    <edge id="C2TL" from="C" to="TL" priority="-1">
        <lane id="C2TL_0" index="0" speed="30.00" length="288.63" shape="642.34,319.81,3.19 642.34,608.43,0.11"/>
        <lane id="C2TL_1" index="1" speed="30.00" length="288.63" shape="639.14,319.81,3.19 639.14,608.43,0.11"/>
    </edge>
    <edge id="CA2C" from="CA" to="C" priority="-1">
        <lane id="CA2C_0" index="0" speed="30.00" length="299.01" shape="946.95,314.21,3.30 647.94,314.21,3.30"/>
        <lane id="CA2C_1" index="1" speed="30.00" length="299.01" shape="946.95,311.01,3.30 647.94,311.01,3.30"/>
    </edge>
    <edge id="CB2C" from="CB" to="C" priority="-1">
        <lane id="CB2C_0" index="0" speed="30.00" length="299.01" shape="642.34,0.00,3.30 642.34,299.01,3.30"/>
        <lane id="CB2C_1" index="1" speed="30.00" length="299.01" shape="639.14,0.00,3.30 639.14,299.01,3.30"/>
    </edge>
    <edge id="CC2C" from="CC" to="C" priority="-1">
        <lane id="CC2C_0" index="0" speed="30.00" length="299.01" shape="328.12,304.61,3.30 627.14,304.61,3.30"/>
        <lane id="CC2C_1" index="1" speed="30.00" length="299.01" shape="328.12,307.81,3.30 627.14,307.81,3.30"/>
    </edge>
    <edge id="D2DA" from="D" to="DA" priority="-1">
        <lane id="D2DA_0" index="0" speed="30.00" length="308.37" shape="313.97,608.43,-21.26 313.97,300.06,-21.26"/>
        <lane id="D2DA_1" index="1" speed="30.00" length="308.37" shape="317.17,608.43,-21.26 317.17,300.06,-21.26"/>
    </edge>
    <edge id="D2DB" from="D" to="DB" priority="-1">
        <lane id="D2DB_0" index="0" speed="30.00" length="308.37" shape="308.37,623.63,-21.26 -0.00,623.63,-21.26"/>
        <lane id="D2DB_1" index="1" speed="30.00" length="308.37" shape="308.37,620.43,-21.26 -0.00,620.43,-21.26"/>
    </edge>
    <edge id="D2DC" from="D" to="DC" priority="-1">
        <lane id="D2DC_0" index="0" speed="30.00" length="308.37" shape="323.57,629.23,-21.26 323.57,937.60,-21.26"/>