<?xml version="1.0" encoding="UTF-8"?>

<!-- generated on 2022-10-11 17:10:51 by Eclipse SUMO netconvert Version 1.14.1
<configuration xmlns:xsi="http://www.w3.org/2001/XMLSchema-instance" xsi:noNamespaceSchemaLocation="http://sumo.dlr.de/xsd/netconvertConfiguration.xsd">

    <input>
        <node-files value="../data/salt-lake-city/nodes.nod.xml"/>
        <edge-files value="../data/salt-lake-city/edges.edg.xml"/>
        <connection-files value="../data/salt-lake-city/connections.con.xml"/>
    </input>

    <output>
        <output-file value="../data/salt-lake-city/sumo/net/18.net.xml"/>
    </output>

    <tls_building>
        <tls.minor-left.max-speed value="1"/>
    </tls_building>

    <report>
        <verbose value="true"/>
    </report>

</configuration>
-->

<net version="1.9" junctionCornerDetail="5" limitTurnSpeed="5.50" xmlns:xsi="http://www.w3.org/2001/XMLSchema-instance" xsi:noNamespaceSchemaLocation="http://sumo.dlr.de/xsd/net_file.xsd">

    <location netOffset="610.31,619.76" convBoundary="0.00,0.00,1243.96,1237.88" origBoundary="-610.31,-619.76,633.65,618.12" projParameter="!"/>

    <edge id=":B_0" function="internal">
        <lane id=":B_0_0" index="0" speed="6.51" length="9.03" shape="922.34,630.16,-2.41 921.99,627.71,-2.39 920.94,625.96,-2.37 919.19,624.91,-2.36 916.74,624.56,-2.33"/>
    </edge>
    <edge id=":B_1" function="internal">
        <lane id=":B_1_0" index="0" speed="30.00" length="20.80" shape="922.34,630.16,-2.41 922.34,609.36,-2.41"/>
        <lane id=":B_1_1" index="1" speed="30.00" length="20.80" shape="925.54,630.16,-2.41 925.54,609.36,-2.41"/>
    </edge>
    <edge id=":B_3" function="internal">
        <lane id=":B_3_0" index="0" speed="9.26" length="5.01" shape="925.54,630.16,-2.41 926.24,625.20,-2.41"/>
    </edge>
    <edge id=":B_16" function="internal">
        <lane id=":B_16_0" index="0" speed="9.26" length="14.34" shape="926.24,625.20,-2.41 926.29,624.91,-2.41 928.54,621.16,-2.41 932.29,618.91,-2.41 937.54,618.16,-2.41"/>
    </edge>
    <edge id=":B_4" function="internal">
        <lane id=":B_4_0" index="0" speed="6.51" length="9.03" shape="937.54,624.56,-2.41 935.09,624.91,-2.41 933.34,625.96,-2.41 932.29,627.71,-2.41 931.94,630.16,-2.41"/>
    </edge>
    <edge id=":B_5" function="internal">
        <lane id=":B_5_0" index="0" speed="30.00" length="20.80" shape="937.54,624.56,-2.41 916.74,624.56,-2.33"/>
        <lane id=":B_5_1" index="1" speed="30.00" length="20.80" shape="937.54,621.36,-2.41 916.74,621.36,-2.33"/>
    </edge>
    <edge id=":B_7" function="internal">
        <lane id=":B_7_0" index="0" speed="9.26" length="5.01" shape="937.54,621.36,-2.41 932.57,620.65,-2.41"/>
    </edge>
    <edge id=":B_17" function="internal">
        <lane id=":B_17_0" index="0" speed="9.26" length="14.34" shape="932.57,620.65,-2.41 932.29,620.61,-2.41 928.54,618.36,-2.41 926.29,614.61,-2.41 925.54,609.36,-2.41"/>
    </edge>
    <edge id=":B_8" function="internal">
        <lane id=":B_8_0" index="0" speed="6.51" length="9.03" shape="931.94,609.36,-2.41 932.29,611.81,-2.41 933.34,613.56,-2.41 935.09,614.61,-2.41 937.54,614.96,-2.41"/>
    </edge>
    <edge id=":B_9" function="internal">
        <lane id=":B_9_0" index="0" speed="30.00" length="20.80" shape="931.94,609.36,-2.41 931.94,630.16,-2.41"/>
        <lane id=":B_9_1" index="1" speed="30.00" length="20.80" shape="928.74,609.36,-2.41 928.74,630.16,-2.41"/>
    </edge>
    <edge id=":B_11" function="internal">
        <lane id=":B_11_0" index="0" speed="9.26" length="5.01" shape="928.74,609.36,-2.41 928.03,614.33,-2.39"/>
    </edge>
    <edge id=":B_18" function="internal">
        <lane id=":B_18_0" index="0" speed="9.26" length="14.34" shape="928.03,614.33,-2.39 927.99,614.61,-2.39 925.74,618.36,-2.37 921.99,620.61,-2.36 916.74,621.36,-2.33"/>
    </edge>
    <edge id=":B_12" function="internal">
        <lane id=":B_12_0" index="0" speed="6.51" length="9.03" shape="916.74,614.96,-2.33 919.19,614.61,-2.36 920.94,613.56,-2.37 921.99,611.81,-2.39 922.34,609.36,-2.41"/>
    </edge>
    <edge id=":B_13" function="internal">
        <lane id=":B_13_0" index="0" speed="30.00" length="20.80" shape="916.74,614.96,-2.33 937.54,614.96,-2.41"/>
        <lane id=":B_13_1" index="1" speed="30.00" length="20.80" shape="916.74,618.16,-2.33 937.54,618.16,-2.41"/>
    </edge>
    <edge id=":B_15" function="internal">
        <lane id=":B_15_0" index="0" speed="9.26" length="5.01" shape="916.74,618.16,-2.33 921.70,618.87,-2.36"/>
    </edge>
    <edge id=":B_19" function="internal">
        <lane id=":B_19_0" index="0" speed="9.26" length="14.34" shape="921.70,618.87,-2.36 921.99,618.91,-2.36 925.74,621.16,-2.37 927.99,624.91,-2.39 928.74,630.16,-2.41"/>
    </edge>
    <edge id=":BA_0" function="internal">
        <lane id=":BA_0_0" index="0" speed="3.65" length="4.67" shape="928.74,936.59,-2.41 927.94,937.79,-2.41 927.14,938.19,-2.41 926.34,937.79,-2.41 925.54,936.59,-2.41"/>
    </edge>
    <edge id=":BB_0" function="internal">
        <lane id=":BB_0_0" index="0" speed="3.65" length="4.67" shape="1243.96,618.16,-2.41 1245.16,618.96,-2.41 1245.56,619.76,-2.41 1245.16,620.56,-2.41 1243.96,621.36,-2.41"/>
    </edge>
    <edge id=":BC_0" function="internal">
        <lane id=":BC_0_0" index="0" speed="3.65" length="4.67" shape="925.54,302.94,-2.41 926.34,301.74,-2.41 927.14,301.34,-2.41 927.94,301.74,-2.41 928.74,302.94,-2.41"/>
    </edge>
    <edge id=":D_0" function="internal">
        <lane id=":D_0_0" index="0" speed="6.51" length="9.03" shape="300.35,630.16,1.95 300.00,627.71,1.95 298.95,625.96,1.95 297.20,624.91,1.95 294.75,624.56,1.95"/>
    </edge>
    <edge id=":D_1" function="internal">
        <lane id=":D_1_0" index="0" speed="30.00" length="20.80" shape="300.35,630.16,1.95 300.35,609.36,1.95"/>
        <lane id=":D_1_1" index="1" speed="30.00" length="20.80" shape="303.55,630.16,1.95 303.55,609.36,1.95"/>
    </edge>
    <edge id=":D_3" function="internal">
        <lane id=":D_3_0" index="0" speed="9.26" length="5.01" shape="303.55,630.16,1.95 304.26,625.20,1.94"/>
    </edge>
    <edge id=":D_16" function="internal">
        <lane id=":D_16_0" index="0" speed="9.26" length="14.34" shape="304.26,625.20,1.94 304.30,624.91,1.93 306.55,621.16,1.92 310.30,618.91,1.90 315.55,618.16,1.89"/>
    </edge>
    <edge id=":D_4" function="internal">
        <lane id=":D_4_0" index="0" speed="6.51" length="9.03" shape="315.55,624.56,1.89 313.10,624.91,1.90 311.35,625.96,1.92 310.30,627.71,1.93 309.95,630.16,1.95"/>
    </edge>
    <edge id=":D_5" function="internal">
        <lane id=":D_5_0" index="0" speed="30.00" length="20.80" shape="315.55,624.56,1.89 294.75,624.56,1.95"/>
        <lane id=":D_5_1" index="1" speed="30.00" length="20.80" shape="315.55,621.36,1.89 294.75,621.36,1.95"/>
    </edge>
    <edge id=":D_7" function="internal">
        <lane id=":D_7_0" index="0" speed="9.26" length="5.01" shape="315.55,621.36,1.89 310.59,620.65,1.90"/>
    </edge>
    <edge id=":D_17" function="internal">
        <lane id=":D_17_0" index="0" speed="9.26" length="14.34" shape="310.59,620.65,1.90 310.30,620.61,1.90 306.55,618.36,1.92 304.30,614.61,1.93 303.55,609.36,1.95"/>
    </edge>
    <edge id=":D_8" function="internal">
        <lane id=":D_8_0" index="0" speed="6.51" length="9.03" shape="309.95,609.36,1.95 310.30,611.81,1.93 311.35,613.56,1.92 313.10,614.61,1.90 315.55,614.96,1.89"/>
    </edge>
    <edge id=":D_9" function="internal">
        <lane id=":D_9_0" index="0" speed="30.00" length="20.80" shape="309.95,609.36,1.95 309.95,630.16,1.95"/>
        <lane id=":D_9_1" index="1" speed="30.00" length="20.80" shape="306.75,609.36,1.95 306.75,630.16,1.95"/>
    </edge>
    <edge id=":D_11" function="internal">
        <lane id=":D_11_0" index="0" speed="9.26" length="5.01" shape="306.75,609.36,1.95 306.05,614.33,1.95"/>
    </edge>
    <edge id=":D_18" function="internal">
        <lane id=":D_18_0" index="0" speed="9.26" length="14.34" shape="306.05,614.33,1.95 306.00,614.61,1.95 303.75,618.36,1.95 300.00,620.61,1.95 294.75,621.36,1.95"/>
    </edge>
    <edge id=":D_12" function="internal">
        <lane id=":D_12_0" index="0" speed="6.51" length="9.03" shape="294.75,614.96,1.95 297.20,614.61,1.95 298.95,613.56,1.95 300.00,611.81,1.95 300.35,609.36,1.95"/>
    </edge>
    <edge id=":D_13" function="internal">
        <lane id=":D_13_0" index="0" speed="30.00" length="20.80" shape="294.75,614.96,1.95 315.55,614.96,1.89"/>
        <lane id=":D_13_1" index="1" speed="30.00" length="20.80" shape="294.75,618.16,1.95 315.55,618.16,1.89"/>
    </edge>
    <edge id=":D_15" function="internal">
        <lane id=":D_15_0" index="0" speed="9.26" length="5.01" shape="294.75,618.16,1.95 299.72,618.87,1.95"/>
    </edge>
    <edge id=":D_19" function="internal">
        <lane id=":D_19_0" index="0" speed="9.26" length="14.34" shape="299.72,618.87,1.95 300.00,618.91,1.95 303.75,621.16,1.95 306.00,624.91,1.95 306.75,630.16,1.95"/>
    </edge>
    <edge id=":DA_0" function="internal">
        <lane id=":DA_0_0" index="0" speed="3.65" length="4.67" shape="303.55,314.61,1.95 304.35,313.41,1.95 305.15,313.01,1.95 305.95,313.41,1.95 306.75,314.61,1.95"/>
    </edge>
    <edge id=":DB_0" function="internal">
        <lane id=":DB_0_0" index="0" speed="3.65" length="4.67" shape="-0.00,621.36,1.95 -1.20,620.56,1.95 -1.60,619.76,1.95 -1.20,618.96,1.95 0.00,618.16,1.95"/>
    </edge>
    <edge id=":DC_0" function="internal">
        <lane id=":DC_0_0" index="0" speed="3.65" length="4.67" shape="306.75,924.92,1.95 305.95,926.12,1.95 305.15,926.52,1.95 304.35,926.12,1.95 303.55,924.92,1.95"/>
    </edge>
    <edge id=":TL_0" function="internal">
        <lane id=":TL_0_0" index="0" speed="6.51" length="9.03" shape="599.11,630.16,0.06 598.76,627.71,0.07 597.71,625.96,0.08 595.96,624.91,0.09 593.51,624.56,0.11"/>
    </edge>
    <edge id=":TL_1" function="internal">
        <lane id=":TL_1_0" index="0" speed="30.00" length="20.80" shape="602.31,630.16,0.06 602.31,609.36,0.05"/>
        <lane id=":TL_1_1" index="1" speed="30.00" length="20.80" shape="605.51,630.16,0.06 605.51,609.36,0.05"/>
        <lane id=":TL_1_2" index="2" speed="30.00" length="20.80" shape="608.71,630.16,0.06 608.71,609.36,0.05"/>
    </edge>
    <edge id=":TL_4" function="internal">
        <lane id=":TL_4_0" index="0" speed="8.10" length="14.57" shape="608.71,630.16,0.06 609.06,624.91,0.03 610.11,621.16,0.00 611.86,618.91,-0.02 614.31,618.16,-0.03"/>
    </edge>
    <edge id=":TL_5" function="internal">
        <lane id=":TL_5_0" index="0" speed="30.00" length="20.80" shape="614.31,624.56,-0.03 593.51,624.56,0.11"/>
        <lane id=":TL_5_1" index="1" speed="30.00" length="20.80" shape="614.31,621.36,-0.03 593.51,621.36,0.11"/>
    </edge>
    <edge id=":TL_7" function="internal">
        <lane id=":TL_7_0" index="0" speed="8.10" length="2.37" shape="614.31,621.36,-0.03 612.04,620.67,-0.02"/>
    </edge>
    <edge id=":TL_11" function="internal">
        <lane id=":TL_11_0" index="0" speed="8.10" length="12.20" shape="612.04,620.67,-0.02 611.86,620.61,-0.02 610.11,618.36,0.00 609.06,614.61,0.02 608.71,609.36,0.05"/>
    </edge>
    <edge id=":TL_8" function="internal">
        <lane id=":TL_8_0" index="0" speed="7.33" length="11.73" shape="593.51,614.96,0.11 597.36,614.61,0.09 600.11,613.56,0.08 601.76,611.81,0.07 602.31,609.36,0.05"/>
    </edge>
    <edge id=":TL_9" function="internal">
        <lane id=":TL_9_0" index="0" speed="30.00" length="20.80" shape="593.51,614.96,0.11 614.31,614.96,-0.03"/>
        <lane id=":TL_9_1" index="1" speed="30.00" length="20.80" shape="593.51,618.16,0.11 614.31,618.16,-0.03"/>
    </edge>

    <edge id="A2AA" from="A" to="AA" priority="-1">
        <lane id="A2AA_0" index="0" speed="30.00" length="294.76" shape="596.01,940.02,1.70 301.25,940.02,1.70"/>
        <lane id="A2AA_1" index="1" speed="30.00" length="294.76" shape="596.01,936.82,1.70 301.25,936.82,1.70"/>
        <lane id="A2AA_2" index="2" speed="30.00" length="294.76" shape="596.01,933.62,1.70 301.25,933.62,1.70"/>
        <lane id="A2AA_3" index="3" speed="30.00" length="294.76" shape="596.01,930.42,1.70 301.25,930.42,1.70"/>
    </edge>
    <edge id="A2AB" from="A" to="AB" priority="-1">
        <lane id="A2AB_0" index="0" speed="30.00" length="294.76" shape="621.51,943.12,1.70 621.51,1237.88,1.70"/>
        <lane id="A2AB_1" index="1" speed="30.00" length="294.76" shape="618.31,943.12,1.70 618.31,1237.88,1.70"/>
        <lane id="A2AB_2" index="2" speed="30.00" length="294.76" shape="615.11,943.12,1.70 615.11,1237.88,1.70"/>
        <lane id="A2AB_3" index="3" speed="30.00" length="294.76" shape="611.91,943.12,1.70 611.91,1237.88,1.70"/>
    </edge>
    <edge id="A2AC" from="A" to="AC" priority="-1">
        <lane id="A2AC_0" index="0" speed="30.00" length="294.76" shape="624.61,917.62,1.70 919.37,917.62,1.70"/>
        <lane id="A2AC_1" index="1" speed="30.00" length="294.76" shape="624.61,920.82,1.70 919.37,920.82,1.70"/>
        <lane id="A2AC_2" index="2" speed="30.00" length="294.76" shape="624.61,924.02,1.70 919.37,924.02,1.70"/>
        <lane id="A2AC_3" index="3" speed="30.00" length="294.76" shape="624.61,927.22,1.70 919.37,927.22,1.70"/>
    </edge>
    <edge id="A2TL" from="A" to="TL" priority="-1">
        <lane id="A2TL_0" index="0" speed="30.00" length="284.36" shape="599.11,914.52,1.62 599.11,630.16,0.06"/>
        <lane id="A2TL_1" index="1" speed="30.00" length="284.36" shape="602.31,914.52,1.62 602.31,630.16,0.06"/>
        <lane id="A2TL_2" index="2" speed="30.00" length="284.36" shape="605.51,914.52,1.62 605.51,630.16,0.06"/>
        <lane id="A2TL_3" index="3" speed="30.00" length="284.36" shape="608.71,914.52,1.62 608.71,630.16,0.06"/>
    </edge>
    <edge id="B2BA" from="B" to="BA" priority="-1">
        <lane id="B2BA_0" index="0" speed="30.00" length="306.43" shape="931.94,630.16,-2.41 931.94,936.59,-2.41"/>
        <lane id="B2BA_1" index="1" speed="30.00" length="306.43" shape="928.74,630.16,-2.41 928.74,936.59,-2.41"/>
    </edge>
    <edge id="B2BB" from="B" to="BB" priority="-1">
        <lane id="B2BB_0" index="0" speed="30.00" length="306.43" shape="937.54,614.96,-2.41 1243.96,614.96,-2.41"/>
        <lane id="B2BB_1" index="1" speed="30.00" length="306.43" shape="937.54,618.16,-2.41 1243.96,618.16,-2.41"/>
    </edge>
    <edge id="B2BC" from="B" to="BC" priority="-1">
        <lane id="B2BC_0" index="0" speed="30.00" length="306.43" shape="922.34,609.36,-2.41 922.34,302.94,-2.41"/>
        <lane id="B2BC_1" index="1" speed="30.00" length="306.43" shape="925.54,609.36,-2.41 925.54,302.94,-2.41"/>
    </edge>
    <edge id="B2TL" from="B" to="TL" priority="-1">
        <lane id="B2TL_0" index="0" speed="30.00" length="302.44" shape="916.74,624.56,-2.33 614.31,624.56,-0.03"/>
        <lane id="B2TL_1" index="1" speed="30.00" length="302.44" shape="916.74,621.36,-2.33 614.31,621.36,-0.03"/>
    </edge>
    <edge id="BA2B" from="BA" to="B" priority="-1">
        <lane id="BA2B_0" index="0" speed="30.00" length="306.43" shape="922.34,936.59,-2.41 922.34,630.16,-2.41"/>
        <lane id="BA2B_1" index="1" speed="30.00" length="306.43" shape="925.54,936.59,-2.41 925.54,630.16,-2.41"/>
    </edge>
    <edge id="BB2B" from="BB" to="B" priority="-1">
        <lane id="BB2B_0" index="0" speed="30.00" length="306.43" shape="1243.96,624.56,-2.41 937.54,624.56,-2.41"/>
        <lane id="BB2B_1" index="1" speed="30.00" length="306.43" shape="1243.96,621.36,-2.41 937.54,621.36,-2.41"/>
    </edge>
    <edge id="BC2B" from="BC" to="B" priority="-1">
        <lane id="BC2B_0" index="0" speed="30.00" length="306.43" shape="931.94,302.94,-2.41 931.94,609.36,-2.41"/>
        <lane id="BC2B_1" index="1" speed="30.00" length="306.43" shape="928.74,302.94,-2.41 928.74,609.36,-2.41"/>
    </edge>
    <edge id="CA2C" from="CA" to="C" priority="-1">
        <lane id="CA2C_0" index="0" speed="30.00" length="298.78" shape="920.19,317.88,1.61 621.41,317.88,1.61"/>
        <lane id="CA2C_1" index="1" speed="30.00" length="298.78" shape="920.19,314.68,1.61 621.41,314.68,1.61"/>
        <lane id="CA2C_2" index="2" speed="30.00" length="298.78" shape="920.19,311.48,1.61 621.41,311.48,1.61"/>
    </edge>
    <edge id="CB2C" from="CB" to="C" priority="-1">
        <lane id="CB2C_0" index="0" speed="30.00" length="298.78" shape="618.31,0.00,1.61 618.31,298.78,1.61"/>
        <lane id="CB2C_1" index="1" speed="30.00" length="298.78" shape="615.11,0.00,1.61 615.11,298.78,1.61"/>
        <lane id="CB2C_2" index="2" speed="30.00" length="298.78" shape="611.91,0.00,1.61 611.91,298.78,1.61"/>
    </edge>
    <edge id="CC2C" from="CC" to="C" priority="-1">
        <lane id="CC2C_0" index="0" speed="30.00" length="298.78" shape="300.43,301.88,1.61 599.21,301.88,1.61"/>
        <lane id="CC2C_1" index="1" speed="30.00" length="298.78" shape="300.43,305.08,1.61 599.21,305.08,1.61"/>
        <lane id="CC2C_2" index="2" speed="30.00" length="298.78" shape="300.43,308.28,1.61 599.21,308.28,1.61"/>
    </edge>
    <edge id="D2DA" from="D" to="DA" priority="-1">
        <lane id="D2DA_0" index="0" speed="30.00" length="294.75" shape="300.35,609.36,1.95 300.35,314.61,1.95"/>
        <lane id="D2DA_1" index="1" speed="30.00" length="294.75" shape="303.55,609.36,1.95 303.55,314.61,1.95"/>
    </edge>
    <edge id="D2DB" from="D" to="DB" priority="-1">
        <lane id="D2DB_0" index="0" speed="30.00" length="294.75" shape="294.75,624.56,1.95 -0.00,624.56,1.95"/>
        <lane id="D2DB_1" index="1" speed="30.00" length="294.75" shape="294.75,621.36,1.95 -0.00,621.36,1.95"/>
    </edge>
    <edge id="D2DC" from="D" to="DC" priority="-1">
        <lane id="D2DC_0" index="0" speed="30.00" length="294.75" shape="309.95,630.16,1.95 309.95,924.92,1.95"/>
        <lane id="D2DC_1" index="1" speed="30.00" length="294.75" shape="306.75,630.16,1.95 306.75,924.92,1.95"/>
    </edge>
    <edge id="D2TL" from="D" to="TL" priority="-1">
        <lane id="D2TL_0" index="0" speed="30.00" length="277.96" shape="315.55,614.96,1.89 593.51,614.96,0.11"/>
        <lane id="D2TL_1" index="1" speed="30.00" length="277.96" shape="315.55,618.16,1.89 593.51,618.16,0.11"/>
    </edge>
    <edge id="DA2D" from="DA" to="D" priority="-1">
        <lane id="DA2D_0" index="0" speed="30.00" length="294.75" shape="309.95,314.61,1.95 309.95,609.36,1.95"/>
        <lane id="DA2D_1" index="1" speed="30.00" length="294.75" shape="306.75,314.61,1.95 306.75,609.36,1.95"/>
    </edge>
    <edge id="DB2D" from="DB" to="D" priority="-1">
        <lane id="DB2D_0" index="0" speed="30.00" length="294.75" shape="0.00,614.96,1.95 294.75,614.96,1.95"/>
        <lane id="DB2D_1" index="1" speed="30.00" length="294.75" shape="0.00,618.16,1.95 294.75,618.16,1.95"/>
    </edge>
    <edge id="DC2D" from="DC" to="D" priority="-1">
        <lane id="DC2D_0" index="0" speed="30.00" length="294.75" shape="300.35,924.92,1.95 300.35,630.16,1.95"/>
        <lane id="DC2D_1" index="1" speed="30.00" length="294.75" shape="303.55,924.92,1.95 303.55,630.16,1.95"/>
    </edge>
    <edge id="TL2B" from="TL" to="B" priority="-1">
        <lane id="TL2B_0" index="0" speed="30.00" length="302.44" shape="614.31,614.96,-0.03 916.74,614.96,-2.33"/>
        <lane id="TL2B_1" index="1" speed="30.00" length="302.44" shape="614.31,618.16,-0.03 916.74,618.16,-2.33"/>
    </edge>
    <edge id="TL2C" from="TL" to="C" priority="-1">
        <lane id="TL2C_0" index="0" speed="30.00" length="288.39" shape="602.31,609.36,0.05 602.31,320.98,1.55"/>
        <lane id="TL2C_1" index="1" speed="30.00" length="288.39" shape="605.51,609.36,0.05 605.51,320.98,1.55"/>
        <lane id="TL2C_2" index="2" speed="30.00" length="288.39" shape="608.71,609.36,0.05 608.71,320.98,1.55"/>
    </edge>
    <edge id="TL2D" from="TL" to="D" priority="-1">
        <lane id="TL2D_0" index="0" speed="30.00" length="277.96" shape="593.51,624.56,0.11 315.55,624.56,1.89"/>
        <lane id="TL2D_1" index="1" speed="30.00" length="277.96" shape="593.51,621.36,0.11 315.55,621.36,1.89"/>
    </edge>

    <tlLogic id="B" type="static" programID="0" offset="0">
        <phase duration="39" state="GGGgrrrrGGGgrrrr"/>
        <phase duration="6"  state="yyyyrrrryyyyrrrr"/>
        <phase duration="39" state="rrrrGGGgrrrrGGGg"/>
        <phase duration="6"  state="rrrryyyyrrrryyyy"/>
    </tlLogic>
    <tlLogic id="BA" type="static" programID="0" offset="0">
        <phase duration="79" state="G"/>
        <phase duration="6"  state="y"/>
        <phase duration="5"  state="r"/>
    </tlLogic>
    <tlLogic id="BB" type="static" programID="0" offset="0">
        <phase duration="79" state="G"/>
        <phase duration="6"  state="y"/>
        <phase duration="5"  state="r"/>
    </tlLogic>
    <tlLogic id="BC" type="static" programID="0" offset="0">
        <phase duration="79" state="G"/>
        <phase duration="6"  state="y"/>
        <phase duration="5"  state="r"/>
    </tlLogic>
    <tlLogic id="D" type="static" programID="0" offset="0">
        <phase duration="39" state="GGGgrrrrGGGgrrrr"/>
        <phase duration="6"  state="yyyyrrrryyyyrrrr"/>
        <phase duration="39" state="rrrrGGGgrrrrGGGg"/>
        <phase duration="6"  state="rrrryyyyrrrryyyy"/>
    </tlLogic>
    <tlLogic id="DA" type="static" programID="0" offset="0">
        <phase duration="79" state="G"/>
        <phase duration="6"  state="y"/>
        <phase duration="5"  state="r"/>
    </tlLogic>
    <tlLogic id="DB" type="static" programID="0" offset="0">
        <phase duration="79" state="G"/>
        <phase duration="6"  state="y"/>
        <phase duration="5"  state="r"/>
    </tlLogic>
    <tlLogic id="DC" type="static" programID="0" offset="0">
        <phase duration="79" state="G"/>
        <phase duration="6"  state="y"/>
        <phase duration="5"  state="r"/>
    </tlLogic>
    <tlLogic id="TL" type="static" programID="0" offset="0">
        <phase duration="39" state="srrrrGGgGGG"/>
        <phase duration="6"  state="srrrryyyyyy"/>
        <phase duration="39" state="GGGGGrrrsrr"/>
        <phase duration="6"  state="yyyyyrrrsrr"/>
    </tlLogic>

    <junction id="A" type="dead_end" x="610.31" y="928.82" z="1.70" incLanes="" intLanes="" shape="610.31,943.12,1.70 623.11,943.12,1.70 623.15,938.75,1.70 623.28,935.18,1.70 623.48,932.40,1.70 623.78,930.41,1.70 624.15,929.22,1.70 624.61,928.82,1.70 624.61,916.02,1.70 620.24,915.98,1.70 616.66,915.86,1.70 613.88,915.65,1.70 611.90,915.36,1.70 610.71,914.98,1.70 610.31,914.52,1.70 597.51,914.52,1.70 597.47,918.89,1.70 597.34,922.47,1.70 597.13,925.25,1.70 596.84,927.23,1.70 596.47,928.43,1.70 596.01,928.82,1.70 596.01,941.62,1.70 600.38,941.66,1.70 603.95,941.79,1.70 606.73,942.00,1.70 608.72,942.29,1.70 609.91,942.66,1.70"/>
    <junction id="AA" type="dead_end" x="301.25" y="928.82" z="1.70" incLanes="A2AA_0 A2AA_1 A2AA_2 A2AA_3" intLanes="" shape="301.25,941.62,1.70 301.25,928.82,1.70"/>
    <junction id="AB" type="dead_end" x="610.31" y="1237.88" z="1.70" incLanes="A2AB_0 A2AB_1 A2AB_2 A2AB_3" intLanes="" shape="623.11,1237.88,1.70 610.31,1237.88,1.70"/>
    <junction id="AC" type="dead_end" x="919.37" y="928.82" z="1.70" incLanes="A2AC_0 A2AC_1 A2AC_2 A2AC_3" intLanes="" shape="919.37,916.02,1.70 919.37,928.82,1.70"/>
    <junction id="B" type="traffic_light" x="927.14" y="619.76" z="-2.41" incLanes="BA2B_0 BA2B_1 BB2B_0 BB2B_1 BC2B_0 BC2B_1 TL2B_0 TL2B_1" intLanes=":B_0_0 :B_1_0 :B_1_1 :B_16_0 :B_4_0 :B_5_0 :B_5_1 :B_17_0 :B_8_0 :B_9_0 :B_9_1 :B_18_0 :B_12_0 :B_13_0 :B_13_1 :B_19_0" shape="920.74,630.16,-2.41 933.54,630.16,-2.41 933.98,627.94,-2.41 934.54,627.16,-2.41 935.31,626.61,-2.41 936.31,626.27,-2.41 937.54,626.16,-2.41 937.54,613.36,-2.41 935.31,612.92,-2.41 934.54,612.36,-2.41 933.98,611.59,-2.41 933.65,610.59,-2.41 933.54,609.36,-2.41 920.74,609.36,-2.41 920.29,611.59,-2.41 919.74,612.36,-2.41 918.96,612.92,-2.41 917.96,613.25,-2.41 916.74,613.36,-2.41 916.74,626.16,-2.41 918.96,626.61,-2.41 919.74,627.16,-2.41 920.29,627.94,-2.41 920.62,628.94,-2.41">
        <request index="0"  response="0000000000000000" foes="0000000001100000" cont="0"/>
        <request index="1"  response="1000000010000000" foes="1111100011100000" cont="0"/>
        <request index="2"  response="1000000010000000" foes="1111100011100000" cont="0"/>
        <request index="3"  response="1000011010000000" foes="1110011011100000" cont="1"/>
        <request index="4"  response="0000011000000000" foes="0000011000000000" cont="0"/>
        <request index="5"  response="0000111000001111" foes="1000111000001111" cont="0"/>
        <request index="6"  response="0000111000001111" foes="1000111000001111" cont="0"/>
        <request index="7"  response="0110111000001110" foes="0110111000001110" cont="1"/>
        <request index="8"  response="0000000000000000" foes="0110000000000000" cont="0"/>
        <request index="9"  response="1000000010000000" foes="1110000011111000" cont="0"/>
        <request index="10" response="1000000010000000" foes="1110000011111000" cont="0"/>
        <request index="11" response="1000000010000110" foes="1110000011100110" cont="1"/>
        <request index="12" response="0000000000000110" foes="0000000000000110" cont="0"/>
        <request index="13" response="0000111100001110" foes="0000111110001110" cont="0"/>
        <request index="14" response="0000111100001110" foes="0000111110001110" cont="0"/>
        <request index="15" response="0000111001101110" foes="0000111001101110" cont="1"/>
    </junction>
    <junction id="BA" type="traffic_light" x="927.14" y="936.59" z="-2.41" incLanes="B2BA_0 B2BA_1" intLanes=":BA_0_0" shape="927.14,936.59,-2.41 933.54,936.59,-2.41 927.14,936.59,-2.41">
        <request index="0" response="0" foes="0" cont="0"/>
    </junction>
    <junction id="BB" type="traffic_light" x="1243.96" y="619.76" z="-2.41" incLanes="B2BB_0 B2BB_1" intLanes=":BB_0_0" shape="1243.96,619.76,-2.41 1243.96,613.36,-2.41 1243.96,619.76,-2.41">
        <request index="0" response="0" foes="0" cont="0"/>
    </junction>
    <junction id="BC" type="traffic_light" x="927.14" y="302.94" z="-2.41" incLanes="B2BC_0 B2BC_1" intLanes=":BC_0_0" shape="927.14,302.94,-2.41 920.74,302.94,-2.41 927.14,302.94,-2.41">
        <request index="0" response="0" foes="0" cont="0"/>
    </junction>
    <junction id="C" type="dead_end" x="610.31" y="309.88" z="1.61" incLanes="TL2C_0 TL2C_1 TL2C_2 CA2C_0 CA2C_1 CA2C_2 CB2C_0 CB2C_1 CB2C_2 CC2C_0 CC2C_1 CC2C_2" intLanes="" shape="600.71,320.98,1.61 610.31,320.98,1.61 611.54,320.15,1.61 613.08,319.86,1.61 615.24,319.65,1.61 618.02,319.52,1.61 621.41,319.48,1.61 621.41,309.88,1.61 620.58,308.65,1.61 620.28,307.11,1.61 620.08,304.95,1.61 619.95,302.17,1.61 619.91,298.78,1.61 610.31,298.78,1.61 609.08,299.61,1.61 607.53,299.91,1.61 605.38,300.11,1.61 602.60,300.24,1.61 599.21,300.28,1.61 599.21,309.88,1.61 600.04,311.11,1.61 600.33,312.66,1.61 600.54,314.81,1.61 600.67,317.59,1.61"/>
    <junction id="CA" type="dead_end" x="920.19" y="309.88" z="1.61" incLanes="" intLanes="" shape="920.19,309.88,1.61 920.19,319.48,1.61"/>
    <junction id="CB" type="dead_end" x="610.31" y="0.00" z="1.61" incLanes="" intLanes="" shape="610.31,0.00,1.61 619.91,0.00,1.61"/>
    <junction id="CC" type="dead_end" x="300.43" y="309.88" z="1.61" incLanes="" intLanes="" shape="300.43,309.88,1.61 300.43,300.28,1.61"/>
    <junction id="D" type="traffic_light" x="305.15" y="619.76" z="1.95" incLanes="DC2D_0 DC2D_1 TL2D_0 TL2D_1 DA2D_0 DA2D_1 DB2D_0 DB2D_1" intLanes=":D_0_0 :D_1_0 :D_1_1 :D_16_0 :D_4_0 :D_5_0 :D_5_1 :D_17_0 :D_8_0 :D_9_0 :D_9_1 :D_18_0 :D_12_0 :D_13_0 :D_13_1 :D_19_0" shape="298.75,630.16,1.95 311.55,630.16,1.95 312.00,627.94,1.95 312.55,627.16,1.95 313.33,626.61,1.95 314.33,626.27,1.95 315.55,626.16,1.95 315.55,613.36,1.95 313.33,612.92,1.95 312.55,612.36,1.95 312.00,611.59,1.95 311.67,610.59,1.95 311.55,609.36,1.95 298.75,609.36,1.95 298.31,611.59,1.95 297.75,612.36,1.95 296.98,612.92,1.95 295.98,613.25,1.95 294.75,613.36,1.95 294.75,626.16,1.95 296.98,626.61,1.95 297.75,627.16,1.95 298.31,627.94,1.95 298.64,628.94,1.95">
        <request index="0"  response="0000000000000000" foes="0000000001100000" cont="0"/>
        <request index="1"  response="1000000010000000" foes="1111100011100000" cont="0"/>
        <request index="2"  response="1000000010000000" foes="1111100011100000" cont="0"/>
        <request index="3"  response="1000011010000000" foes="1110011011100000" cont="1"/>
        <request index="4"  response="0000011000000000" foes="0000011000000000" cont="0"/>
        <request index="5"  response="0000111000001111" foes="1000111000001111" cont="0"/>
        <request index="6"  response="0000111000001111" foes="1000111000001111" cont="0"/>
        <request index="7"  response="0110111000001110" foes="0110111000001110" cont="1"/>
        <request index="8"  response="0000000000000000" foes="0110000000000000" cont="0"/>
        <request index="9"  response="1000000010000000" foes="1110000011111000" cont="0"/>
        <request index="10" response="1000000010000000" foes="1110000011111000" cont="0"/>
        <request index="11" response="1000000010000110" foes="1110000011100110" cont="1"/>
        <request index="12" response="0000000000000110" foes="0000000000000110" cont="0"/>
        <request index="13" response="0000111100001110" foes="0000111110001110" cont="0"/>
        <request index="14" response="0000111100001110" foes="0000111110001110" cont="0"/>
        <request index="15" response="0000111001101110" foes="0000111001101110" cont="1"/>
    </junction>
    <junction id="DA" type="traffic_light" x="305.15" y="314.61" z="1.95" incLanes="D2DA_0 D2DA_1" intLanes=":DA_0_0" shape="305.15,314.61,1.95 298.75,314.61,1.95 305.15,314.61,1.95">
        <request index="0" response="0" foes="0" cont="0"/>
    </junction>