<?xml version="1.0" encoding="UTF-8"?>

<!-- generated on 2022-10-11 16:45:15 by Eclipse SUMO netconvert Version 1.14.1
<configuration xmlns:xsi="http://www.w3.org/2001/XMLSchema-instance" xsi:noNamespaceSchemaLocation="http://sumo.dlr.de/xsd/netconvertConfiguration.xsd">

    <input>
        <node-files value="../data/salt-lake-city/nodes.nod.xml"/>
        <edge-files value="../data/salt-lake-city/edges.edg.xml"/>
        <connection-files value="../data/salt-lake-city/connections.con.xml"/>
    </input>

    <output>
        <output-file value="../data/salt-lake-city/sumo/net/181.net.xml"/>
    </output>

    <tls_building>
        <tls.minor-left.max-speed value="1"/>
    </tls_building>

    <report>
        <verbose value="true"/>
    </report>

</configuration>
-->

<net version="1.9" junctionCornerDetail="5" limitTurnSpeed="5.50" xmlns:xsi="http://www.w3.org/2001/XMLSchema-instance" xsi:noNamespaceSchemaLocation="http://sumo.dlr.de/xsd/net_file.xsd">

    <location netOffset="293.63,330.19" convBoundary="0.00,0.00,917.28,917.46" origBoundary="-293.63,-330.19,623.65,587.26" projParameter="!"/>

    <edge id=":A_0" function="internal">
        <lane id=":A_0_0" index="0" speed="7.33" length="11.73" shape="292.03,634.23,3.67 291.48,631.78,3.67 289.83,630.03,3.67 287.08,628.98,3.67 283.23,628.63,3.67"/>
    </edge>
    <edge id=":A_1" function="internal">
        <lane id=":A_1_0" index="0" speed="20.00" length="21.09" shape="292.03,634.23,3.67 291.53,630.27,3.64 290.43,625.70,3.62 289.33,620.19,3.58 288.83,613.43,3.54"/>
    </edge>
    <edge id=":A_2" function="internal">
        <lane id=":A_2_0" index="0" speed="7.33" length="11.73" shape="304.03,625.43,3.67 301.58,625.98,3.67 299.83,627.63,3.67 298.78,630.38,3.67 298.43,634.23,3.67"/>
    </edge>
    <edge id=":A_3" function="internal">
        <lane id=":A_3_0" index="0" speed="20.00" length="21.09" shape="304.03,625.43,3.67 300.08,625.93,3.67 295.51,627.03,3.67 290.00,628.13,3.67 283.23,628.63,3.67"/>
    </edge>
    <edge id=":A_4" function="internal">
        <lane id=":A_4_0" index="0" speed="7.33" length="11.73" shape="295.23,613.43,3.54 295.78,615.88,3.57 297.43,617.63,3.59 300.18,618.68,3.63 304.03,619.03,3.67"/>
    </edge>
    <edge id=":A_5" function="internal">
        <lane id=":A_5_0" index="0" speed="20.00" length="21.09" shape="295.23,613.43,3.54 295.73,617.38,3.56 296.83,621.95,3.59 297.93,627.46,3.63 298.43,634.23,3.67"/>
    </edge>
    <edge id=":A_6" function="internal">
        <lane id=":A_6_0" index="0" speed="7.33" length="11.73" shape="283.23,622.23,3.67 285.68,621.68,3.64 287.43,620.03,3.61 288.48,617.28,3.58 288.83,613.43,3.54"/>
    </edge>
    <edge id=":A_7" function="internal">
        <lane id=":A_7_0" index="0" speed="20.00" length="21.09" shape="283.23,622.23,3.67 287.18,621.73,3.67 291.76,620.63,3.67 297.27,619.53,3.67 304.03,619.03,3.67"/>
    </edge>
    <edge id=":AA_0" function="internal">
        <lane id=":AA_0_0" index="0" speed="3.65" length="4.67" shape="0.00,625.43,3.67 -1.20,624.63,3.67 -1.60,623.83,3.67 -1.20,623.03,3.67 0.00,622.23,3.67"/>
    </edge>
    <edge id=":AB_0" function="internal">
        <lane id=":AB_0_0" index="0" speed="3.65" length="4.67" shape="295.23,917.46,3.67 294.43,918.66,3.67 293.63,919.06,3.67 292.83,918.66,3.67 292.03,917.46,3.67"/>
    </edge>
    <edge id=":AC_0" function="internal">
        <lane id=":AC_0_0" index="0" speed="3.65" length="4.67" shape="587.26,622.23,3.67 588.46,623.03,3.67 588.86,623.83,3.67 588.46,624.63,3.67 587.26,625.43,3.67"/>
    </edge>
    <edge id=":B_0" function="internal">
        <lane id=":B_0_0" index="0" speed="7.33" length="11.73" shape="600.66,343.79,-3.04 600.11,341.34,-3.01 598.46,339.59,-2.99 595.71,338.54,-2.95 591.86,338.19,-2.91"/>
    </edge>
    <edge id=":B_1" function="internal">
        <lane id=":B_1_0" index="0" speed="25.00" length="27.43" shape="600.66,343.79,-3.04 600.16,337.25,-3.04 599.06,331.58,-3.04 597.96,325.21,-3.04 597.46,316.59,-3.04"/>
        <lane id=":B_1_1" index="1" speed="25.00" length="27.43" shape="603.86,343.79,-3.04 603.36,337.25,-3.04 602.26,331.58,-3.04 601.16,325.21,-3.04 600.66,316.59,-3.04"/>
    </edge>
    <edge id=":B_3" function="internal">
        <lane id=":B_3_0" index="0" speed="10.36" length="10.84" shape="603.86,343.79,-3.04 604.81,337.14,-3.04 606.93,333.61,-3.04"/>
    </edge>
    <edge id=":B_16" function="internal">
        <lane id=":B_16_0" index="0" speed="10.36" length="13.67" shape="606.93,333.61,-3.04 607.66,332.39,-3.04 612.41,329.54,-3.04 619.06,328.59,-3.04"/>
    </edge>
    <edge id=":B_4" function="internal">
        <lane id=":B_4_0" index="0" speed="7.33" length="11.73" shape="619.06,334.99,-3.04 616.61,335.54,-3.04 614.86,337.19,-3.04 613.81,339.94,-3.04 613.46,343.79,-3.04"/>
    </edge>
    <edge id=":B_5" function="internal">
        <lane id=":B_5_0" index="0" speed="25.00" length="27.43" shape="619.06,334.99,-3.04 612.51,335.49,-3.01 606.84,336.59,-2.98 600.48,337.69,-2.95 591.86,338.19,-2.91"/>
        <lane id=":B_5_1" index="1" speed="25.00" length="27.43" shape="619.06,331.79,-3.04 612.51,332.29,-3.01 606.84,333.39,-2.98 600.48,334.49,-2.95 591.86,334.99,-2.91"/>
    </edge>
    <edge id=":B_7" function="internal">
        <lane id=":B_7_0" index="0" speed="10.36" length="10.84" shape="619.06,331.79,-3.04 612.41,330.84,-3.04 608.87,328.72,-3.04"/>
    </edge>
    <edge id=":B_17" function="internal">
        <lane id=":B_17_0" index="0" speed="10.36" length="13.67" shape="608.87,328.72,-3.04 607.66,327.99,-3.04 604.81,323.24,-3.04 603.86,316.59,-3.04"/>
    </edge>
    <edge id=":B_8" function="internal">
        <lane id=":B_8_0" index="0" speed="7.33" length="11.73" shape="610.26,316.59,-3.04 610.81,319.04,-3.04 612.46,320.79,-3.04 615.21,321.84,-3.04 619.06,322.19,-3.04"/>
    </edge>
    <edge id=":B_9" function="internal">
        <lane id=":B_9_0" index="0" speed="25.00" length="27.43" shape="610.26,316.59,-3.04 610.76,323.14,-3.04 611.86,328.81,-3.04 612.96,335.17,-3.04 613.46,343.79,-3.04"/>
        <lane id=":B_9_1" index="1" speed="25.00" length="27.43" shape="607.06,316.59,-3.04 607.56,323.14,-3.04 608.66,328.81,-3.04 609.76,335.17,-3.04 610.26,343.79,-3.04"/>
    </edge>
    <edge id=":B_11" function="internal">
        <lane id=":B_11_0" index="0" speed="10.36" length="10.84" shape="607.06,316.59,-3.04 606.11,323.24,-3.01 603.98,326.78,-2.98"/>
    </edge>
    <edge id=":B_18" function="internal">
        <lane id=":B_18_0" index="0" speed="10.36" length="13.67" shape="603.98,326.78,-2.98 603.26,327.99,-2.98 598.51,330.84,-2.95 591.86,331.79,-2.91"/>
    </edge>
    <edge id=":B_12" function="internal">
        <lane id=":B_12_0" index="0" speed="7.33" length="11.73" shape="591.86,325.39,-2.91 594.31,324.84,-2.94 596.06,323.19,-2.96 597.11,320.44,-3.00 597.46,316.59,-3.04"/>
    </edge>
    <edge id=":B_13" function="internal">
        <lane id=":B_13_0" index="0" speed="25.00" length="27.43" shape="591.86,325.39,-2.91 598.40,324.89,-2.94 604.07,323.79,-2.97 610.43,322.69,-3.00 619.06,322.19,-3.04"/>
        <lane id=":B_13_1" index="1" speed="25.00" length="27.43" shape="591.86,328.59,-2.91 598.40,328.09,-2.94 604.07,326.99,-2.97 610.43,325.89,-3.00 619.06,325.39,-3.04"/>
    </edge>
    <edge id=":B_15" function="internal">
        <lane id=":B_15_0" index="0" speed="10.36" length="10.84" shape="591.86,328.59,-2.91 598.51,329.54,-2.95 602.04,331.67,-2.97"/>
    </edge>
    <edge id=":B_19" function="internal">
        <lane id=":B_19_0" index="0" speed="10.36" length="13.67" shape="602.04,331.67,-2.97 603.26,332.39,-2.98 606.11,337.14,-3.01 607.06,343.79,-3.04"/>
    </edge>
    <edge id=":BA_0" function="internal">
        <lane id=":BA_0_0" index="0" speed="3.65" length="4.67" shape="607.06,642.02,-3.04 606.26,643.22,-3.04 605.46,643.62,-3.04 604.66,643.22,-3.04 603.86,642.02,-3.04"/>
    </edge>
    <edge id=":BB_0" function="internal">
        <lane id=":BB_0_0" index="0" speed="3.65" length="4.67" shape="917.28,328.59,-3.04 918.48,329.39,-3.04 918.88,330.19,-3.04 918.48,330.99,-3.04 917.28,331.79,-3.04"/>
    </edge>
    <edge id=":BC_0" function="internal">
        <lane id=":BC_0_0" index="0" speed="3.65" length="4.67" shape="603.86,18.37,-3.04 604.66,17.17,-3.04 605.46,16.77,-3.04 606.26,17.17,-3.04 607.06,18.37,-3.04"/>
    </edge>
    <edge id=":C_0" function="internal">
        <lane id=":C_0_0" index="0" speed="6.51" length="9.03" shape="288.83,175.50,-0.85 288.48,173.05,-0.86 287.43,171.30,-0.88 285.68,170.25,-0.89 283.23,169.90,-0.91"/>
    </edge>
    <edge id=":C_1" function="internal">
        <lane id=":C_1_0" index="0" speed="20.00" length="20.80" shape="288.83,175.50,-0.85 288.83,154.70,-0.91"/>
        <lane id=":C_1_1" index="1" speed="20.00" length="20.80" shape="292.03,175.50,-0.85 292.03,154.70,-0.91"/>
    </edge>
    <edge id=":C_3" function="internal">
        <lane id=":C_3_0" index="0" speed="9.26" length="5.01" shape="292.03,175.50,-0.85 292.74,170.53,-0.86"/>
    </edge>
    <edge id=":C_16" function="internal">
        <lane id=":C_16_0" index="0" speed="9.26" length="14.34" shape="292.74,170.53,-0.86 292.78,170.25,-0.86 295.03,166.50,-0.88 298.78,164.25,-0.89 304.03,163.50,-0.91"/>
    </edge>
    <edge id=":C_4" function="internal">
        <lane id=":C_4_0" index="0" speed="6.51" length="9.03" shape="304.03,169.90,-0.91 301.58,170.25,-0.89 299.83,171.30,-0.88 298.78,173.05,-0.86 298.43,175.50,-0.85"/>
    </edge>
    <edge id=":C_5" function="internal">
        <lane id=":C_5_0" index="0" speed="20.00" length="20.80" shape="304.03,169.90,-0.91 283.23,169.90,-0.91"/>
        <lane id=":C_5_1" index="1" speed="20.00" length="20.80" shape="304.03,166.70,-0.91 283.23,166.70,-0.91"/>
    </edge>
    <edge id=":C_7" function="internal">
        <lane id=":C_7_0" index="0" speed="9.26" length="5.01" shape="304.03,166.70,-0.91 299.07,165.99,-0.91"/>
    </edge>
    <edge id=":C_17" function="internal">
        <lane id=":C_17_0" index="0" speed="9.26" length="14.34" shape="299.07,165.99,-0.91 298.78,165.95,-0.91 295.03,163.70,-0.91 292.78,159.95,-0.91 292.03,154.70,-0.91"/>
    </edge>
    <edge id=":C_8" function="internal">
        <lane id=":C_8_0" index="0" speed="6.51" length="9.03" shape="298.43,154.70,-0.91 298.78,157.15,-0.91 299.83,158.90,-0.91 301.58,159.95,-0.91 304.03,160.30,-0.91"/>
    </edge>
    <edge id=":C_9" function="internal">
        <lane id=":C_9_0" index="0" speed="20.00" length="20.80" shape="298.43,154.70,-0.91 298.43,175.50,-0.85"/>
        <lane id=":C_9_1" index="1" speed="20.00" length="20.80" shape="295.23,154.70,-0.91 295.23,175.50,-0.85"/>
    </edge>
    <edge id=":C_11" function="internal">
        <lane id=":C_11_0" index="0" speed="9.26" length="5.01" shape="295.23,154.70,-0.91 294.52,159.66,-0.91"/>
    </edge>
    <edge id=":C_18" function="internal">
        <lane id=":C_18_0" index="0" speed="9.26" length="14.34" shape="294.52,159.66,-0.91 294.48,159.95,-0.91 292.23,163.70,-0.91 288.48,165.95,-0.91 283.23,166.70,-0.91"/>
    </edge>
    <edge id=":C_12" function="internal">
        <lane id=":C_12_0" index="0" speed="6.51" length="9.03" shape="283.23,160.30,-0.91 285.68,159.95,-0.91 287.43,158.90,-0.91 288.48,157.15,-0.91 288.83,154.70,-0.91"/>
    </edge>
    <edge id=":C_13" function="internal">
        <lane id=":C_13_0" index="0" speed="20.00" length="20.80" shape="283.23,160.30,-0.91 304.03,160.30,-0.91"/>
        <lane id=":C_13_1" index="1" speed="20.00" length="20.80" shape="283.23,163.50,-0.91 304.03,163.50,-0.91"/>
    </edge>
    <edge id=":C_15" function="internal">
        <lane id=":C_15_0" index="0" speed="9.26" length="5.01" shape="283.23,163.50,-0.91 288.19,164.21,-0.89"/>
    </edge>
    <edge id=":C_19" function="internal">
        <lane id=":C_19_0" index="0" speed="9.26" length="14.34" shape="288.19,164.21,-0.89 288.48,164.25,-0.89 292.23,166.50,-0.88 294.48,170.25,-0.86 295.23,175.50,-0.85"/>
    </edge>
    <edge id=":CA_0" function="internal">
        <lane id=":CA_0_0" index="0" speed="3.65" length="4.67" shape="458.73,163.50,-0.91 459.93,164.30,-0.91 460.33,165.10,-0.91 459.93,165.90,-0.91 458.73,166.70,-0.91"/>
    </edge>
    <edge id=":CB_0" function="internal">
        <lane id=":CB_0_0" index="0" speed="3.65" length="4.67" shape="292.03,0.00,-0.91 292.83,-1.20,-0.91 293.63,-1.60,-0.91 294.43,-1.20,-0.91 295.23,0.00,-0.91"/>
    </edge>
    <edge id=":CC_0" function="internal">
        <lane id=":CC_0_0" index="0" speed="3.65" length="4.67" shape="128.53,166.70,-0.91 127.33,165.90,-0.91 126.93,165.10,-0.91 127.33,164.30,-0.91 128.53,163.50,-0.91"/>
    </edge>
    <edge id=":D_0" function="internal">
        <lane id=":D_0_0" index="0" speed="7.33" length="11.73" shape="148.91,343.79,-0.04 148.36,341.34,-0.04 146.71,339.59,-0.04 143.96,338.54,-0.04 140.11,338.19,-0.04"/>
    </edge>
    <edge id=":D_1" function="internal">
        <lane id=":D_1_0" index="0" speed="25.00" length="27.43" shape="148.91,343.79,-0.04 148.41,337.25,-0.04 147.31,331.58,-0.04 146.21,325.21,-0.04 145.71,316.59,-0.04"/>
        <lane id=":D_1_1" index="1" speed="25.00" length="27.43" shape="152.11,343.79,-0.04 151.61,337.25,-0.04 150.51,331.58,-0.04 149.41,325.21,-0.04 148.91,316.59,-0.04"/>
    </edge>
    <edge id=":D_3" function="internal">
        <lane id=":D_3_0" index="0" speed="10.36" length="10.84" shape="152.11,343.79,-0.04 153.06,337.14,-0.04 155.19,333.61,-0.04"/>
    </edge>
    <edge id=":D_16" function="internal">
        <lane id=":D_16_0" index="0" speed="10.36" length="13.67" shape="155.19,333.61,-0.04 155.91,332.39,-0.04 160.66,329.54,-0.04 167.31,328.59,-0.04"/>
    </edge>
    <edge id=":D_4" function="internal">
        <lane id=":D_4_0" index="0" speed="7.33" length="11.73" shape="167.31,334.99,-0.04 164.86,335.54,-0.04 163.11,337.19,-0.04 162.06,339.94,-0.04 161.71,343.79,-0.04"/>
    </edge>
    <edge id=":D_5" function="internal">
        <lane id=":D_5_0" index="0" speed="25.00" length="27.43" shape="167.31,334.99,-0.04 160.77,335.49,-0.04 155.10,336.59,-0.04 148.73,337.69,-0.04 140.11,338.19,-0.04"/>
        <lane id=":D_5_1" index="1" speed="25.00" length="27.43" shape="167.31,331.79,-0.04 160.77,332.29,-0.04 155.10,333.39,-0.04 148.73,334.49,-0.04 140.11,334.99,-0.04"/>
    </edge>
    <edge id=":D_7" function="internal">
        <lane id=":D_7_0" index="0" speed="10.36" length="10.84" shape="167.31,331.79,-0.04 160.66,330.84,-0.04 157.12,328.72,-0.04"/>
    </edge>
    <edge id=":D_17" function="internal">
        <lane id=":D_17_0" index="0" speed="10.36" length="13.67" shape="157.12,328.72,-0.04 155.91,327.99,-0.04 153.06,323.24,-0.04 152.11,316.59,-0.04"/>
    </edge>
    <edge id=":D_8" function="internal">
        <lane id=":D_8_0" index="0" speed="7.33" length="11.73" shape="158.51,316.59,-0.04 159.06,319.04,-0.04 160.71,320.79,-0.04 163.46,321.84,-0.04 167.31,322.19,-0.04"/>
    </edge>
    <edge id=":D_9" function="internal">
        <lane id=":D_9_0" index="0" speed="25.00" length="27.43" shape="158.51,316.59,-0.04 159.01,323.14,-0.04 160.11,328.81,-0.04 161.21,335.17,-0.04 161.71,343.79,-0.04"/>
        <lane id=":D_9_1" index="1" speed="25.00" length="27.43" shape="155.31,316.59,-0.04 155.81,323.14,-0.04 156.91,328.81,-0.04 158.01,335.17,-0.04 158.51,343.79,-0.04"/>
    </edge>
    <edge id=":D_11" function="internal">
        <lane id=":D_11_0" index="0" speed="10.36" length="10.84" shape="155.31,316.59,-0.04 154.36,323.24,-0.04 152.24,326.78,-0.04"/>
    </edge>
    <edge id=":D_18" function="internal">
        <lane id=":D_18_0" index="0" speed="10.36" length="13.67" shape="152.24,326.78,-0.04 151.51,327.99,-0.04 146.76,330.84,-0.04 140.11,331.79,-0.04"/>
    </edge>
    <edge id=":D_12" function="internal">
        <lane id=":D_12_0" index="0" speed="7.33" length="11.73" shape="140.11,325.39,-0.04 142.56,324.84,-0.04 144.31,323.19,-0.04 145.36,320.44,-0.04 145.71,316.59,-0.04"/>
    </edge>
    <edge id=":D_13" function="internal">
        <lane id=":D_13_0" index="0" speed="25.00" length="27.43" shape="140.11,325.39,-0.04 146.66,324.89,-0.04 152.33,323.79,-0.04 158.69,322.69,-0.04 167.31,322.19,-0.04"/>
        <lane id=":D_13_1" index="1" speed="25.00" length="27.43" shape="140.11,328.59,-0.04 146.66,328.09,-0.04 152.33,326.99,-0.04 158.69,325.89,-0.04 167.31,325.39,-0.04"/>
    </edge>
    <edge id=":D_15" function="internal">
        <lane id=":D_15_0" index="0" speed="10.36" length="10.84" shape="140.11,328.59,-0.04 146.76,329.54,-0.04 150.30,331.67,-0.04"/>
    </edge>
    <edge id=":D_19" function="internal">
        <lane id=":D_19_0" index="0" speed="10.36" length="13.67" shape="150.30,331.67,-0.04 151.51,332.39,-0.04 154.36,337.14,-0.04 155.31,343.79,-0.04"/>
    </edge>
    <edge id=":DA_0" function="internal">
        <lane id=":DA_0_0" index="0" speed="3.65" length="4.67" shape="152.11,190.28,-0.04 152.91,189.08,-0.04 153.71,188.68,-0.04 154.51,189.08,-0.04 155.31,190.28,-0.04"/>
    </edge>
    <edge id=":DB_0" function="internal">
        <lane id=":DB_0_0" index="0" speed="3.65" length="4.67" shape="13.79,331.79,-0.04 12.59,330.99,-0.04 12.19,330.19,-0.04 12.59,329.39,-0.04 13.79,328.59,-0.04"/>
    </edge>
    <edge id=":DC_0" function="internal">
        <lane id=":DC_0_0" index="0" speed="3.65" length="4.67" shape="155.31,470.11,-0.04 154.51,471.31,-0.04 153.71,471.71,-0.04 152.91,471.31,-0.04 152.11,470.11,-0.04"/>
    </edge>
    <edge id=":TL_0" function="internal">
        <lane id=":TL_0_0" index="0" speed="7.33" length="11.73" shape="288.83,343.79,0.17 288.48,339.94,0.11 287.43,337.19,0.07 285.68,335.54,0.03 283.23,334.99,-0.00"/>
    </edge>
    <edge id=":TL_1" function="internal">
        <lane id=":TL_1_0" index="0" speed="20.00" length="27.20" shape="288.83,343.79,0.17 288.83,316.59,-0.07"/>
    </edge>
    <edge id=":TL_2" function="internal">
        <lane id=":TL_2_0" index="0" speed="9.84" length="6.30" shape="292.03,343.79,0.17 292.74,337.54,0.09"/>
    </edge>
    <edge id=":TL_15" function="internal">
        <lane id=":TL_15_0" index="0" speed="9.84" length="15.70" shape="292.74,337.54,0.09 292.78,337.14,0.09 295.03,332.39,0.02 298.78,329.54,-0.04 304.03,328.59,-0.10"/>
    </edge>
    <edge id=":TL_3" function="internal">
        <lane id=":TL_3_0" index="0" speed="7.33" length="11.73" shape="304.03,338.19,-0.10 300.18,338.54,-0.01 297.43,339.59,0.06 295.78,341.34,0.11 295.23,343.79,0.17"/>
    </edge>
    <edge id=":TL_4" function="internal">
        <lane id=":TL_4_0" index="0" speed="25.00" length="21.12" shape="304.03,338.19,-0.10 297.75,337.69,-0.07 293.44,336.59,-0.05 289.22,335.49,-0.03 283.23,334.99,-0.00"/>
        <lane id=":TL_4_1" index="1" speed="25.00" length="21.12" shape="304.03,334.99,-0.10 297.75,334.49,-0.07 293.44,333.39,-0.05 289.22,332.29,-0.03 283.23,331.79,-0.00"/>
    </edge>
    <edge id=":TL_6" function="internal">
        <lane id=":TL_6_0" index="0" speed="9.84" length="5.50" shape="304.03,331.79,-0.10 298.78,330.84,-0.09 298.65,330.74,-0.09"/>
    </edge>
    <edge id=":TL_16" function="internal">
        <lane id=":TL_16_0" index="0" speed="9.84" length="16.49" shape="298.65,330.74,-0.09 295.03,327.99,-0.09 292.78,323.24,-0.08 292.03,316.59,-0.07"/>
    </edge>
    <edge id=":TL_7" function="internal">
        <lane id=":TL_7_0" index="0" speed="7.33" length="11.73" shape="298.43,316.59,-0.07 298.78,320.44,-0.08 299.83,323.19,-0.09 301.58,324.84,-0.10 304.03,325.39,-0.10"/>
    </edge>
    <edge id=":TL_8" function="internal">
        <lane id=":TL_8_0" index="0" speed="20.00" length="27.31" shape="298.43,316.59,-0.07 297.93,324.36,-0.01 296.83,332.07,0.06 295.73,338.84,0.13 295.23,343.79,0.17"/>
        <lane id=":TL_8_1" index="1" speed="20.00" length="27.31" shape="295.23,316.59,-0.07 295.23,343.79,0.17"/>
    </edge>
    <edge id=":TL_10" function="internal">
        <lane id=":TL_10_0" index="0" speed="9.84" length="12.79" shape="295.23,316.59,-0.07 294.48,323.24,-0.05 292.23,327.99,-0.04 291.56,328.50,-0.03"/>
    </edge>
    <edge id=":TL_17" function="internal">
        <lane id=":TL_17_0" index="0" speed="9.84" length="9.21" shape="291.56,328.50,-0.03 288.48,330.84,-0.02 283.23,331.79,-0.00"/>
    </edge>
    <edge id=":TL_11" function="internal">
        <lane id=":TL_11_0" index="0" speed="6.51" length="9.03" shape="283.23,322.19,-0.00 285.68,321.84,-0.02 287.43,320.79,-0.04 288.48,319.04,-0.06 288.83,316.59,-0.07"/>
    </edge>
    <edge id=":TL_12" function="internal">
        <lane id=":TL_12_0" index="0" speed="25.00" length="21.12" shape="283.23,322.19,-0.00 289.51,322.69,-0.03 293.83,323.79,-0.05 298.04,324.89,-0.07 304.03,325.39,-0.10"/>
        <lane id=":TL_12_1" index="1" speed="25.00" length="21.12" shape="283.23,325.39,-0.00 289.51,325.89,-0.03 293.83,326.99,-0.05 298.04,328.09,-0.07 304.03,328.59,-0.10"/>
    </edge>
    <edge id=":TL_14" function="internal">
        <lane id=":TL_14_0" index="0" speed="9.84" length="5.50" shape="283.23,328.59,-0.00 288.48,329.54,0.04 288.61,329.64,0.04"/>
    </edge>
    <edge id=":TL_18" function="internal">
        <lane id=":TL_18_0" index="0" speed="9.84" length="16.50" shape="288.61,329.64,0.04 292.23,332.39,0.08 294.48,337.14,0.12 295.23,343.79,0.17"/>
    </edge>

    <edge id="A2AA" from="A" to="AA" priority="-1">
        <lane id="A2AA_0" index="0" speed="20.00" length="283.23" shape="283.23,628.63,3.67 0.00,628.63,3.67"/>
        <lane id="A2AA_1" index="1" speed="20.00" length="283.23" shape="283.23,625.43,3.67 0.00,625.43,3.67"/>
    </edge>
    <edge id="A2AB" from="A" to="AB" priority="-1">
        <lane id="A2AB_0" index="0" speed="20.00" length="283.23" shape="298.43,634.23,3.67 298.43,917.46,3.67"/>
        <lane id="A2AB_1" index="1" speed="20.00" length="283.23" shape="295.23,634.23,3.67 295.23,917.46,3.67"/>
    </edge>
    <edge id="A2AC" from="A" to="AC" priority="-1">
        <lane id="A2AC_0" index="0" speed="20.00" length="283.23" shape="304.03,619.03,3.67 587.26,619.03,3.67"/>
        <lane id="A2AC_1" index="1" speed="20.00" length="283.23" shape="304.03,622.23,3.67 587.26,622.23,3.67"/>
    </edge>
    <edge id="A2TL" from="A" to="TL" priority="-1">
        <lane id="A2TL_0" index="0" speed="20.00" length="269.65" shape="288.83,613.43,3.54 288.83,343.79,0.17"/>
        <lane id="A2TL_1" index="1" speed="20.00" length="269.65" shape="292.03,613.43,3.54 292.03,343.79,0.17"/>
    </edge>
    <edge id="AA2A" from="AA" to="A" priority="-1">
        <lane id="AA2A_0" index="0" speed="20.00" length="283.23" shape="0.00,622.23,3.67 283.23,622.23,3.67"/>
    </edge>
    <edge id="AB2A" from="AB" to="A" priority="-1">
        <lane id="AB2A_0" index="0" speed="20.00" length="283.23" shape="292.03,917.46,3.67 292.03,634.23,3.67"/>
    </edge>
    <edge id="AC2A" from="AC" to="A" priority="-1">
        <lane id="AC2A_0" index="0" speed="20.00" length="283.23" shape="587.26,625.43,3.67 304.03,625.43,3.67"/>
    </edge>
    <edge id="B2BA" from="B" to="BA" priority="-1">
        <lane id="B2BA_0" index="0" speed="25.00" length="298.22" shape="613.46,343.79,-3.04 613.46,642.02,-3.04"/>
        <lane id="B2BA_1" index="1" speed="25.00" length="298.22" shape="610.26,343.79,-3.04 610.26,642.02,-3.04"/>
        <lane id="B2BA_2" index="2" speed="25.00" length="298.22" shape="607.06,343.79,-3.04 607.06,642.02,-3.04"/>
    </edge>
    <edge id="B2BB" from="B" to="BB" priority="-1">
        <lane id="B2BB_0" index="0" speed="25.00" length="298.22" shape="619.06,322.19,-3.04 917.28,322.19,-3.04"/>
        <lane id="B2BB_1" index="1" speed="25.00" length="298.22" shape="619.06,325.39,-3.04 917.28,325.39,-3.04"/>
        <lane id="B2BB_2" index="2" speed="25.00" length="298.22" shape="619.06,328.59,-3.04 917.28,328.59,-3.04"/>
    </edge>
    <edge id="B2BC" from="B" to="BC" priority="-1">
        <lane id="B2BC_0" index="0" speed="25.00" length="298.22" shape="597.46,316.59,-3.04 597.46,18.37,-3.04"/>
        <lane id="B2BC_1" index="1" speed="25.00" length="298.22" shape="600.66,316.59,-3.04 600.66,18.37,-3.04"/>
        <lane id="B2BC_2" index="2" speed="25.00" length="298.22" shape="603.86,316.59,-3.04 603.86,18.37,-3.04"/>
    </edge>
    <edge id="B2TL" from="B" to="TL" priority="-1">
        <lane id="B2TL_0" index="0" speed="25.00" length="287.84" shape="591.86,338.19,-2.91 304.03,338.19,-0.10"/>
        <lane id="B2TL_1" index="1" speed="25.00" length="287.84" shape="591.86,334.99,-2.91 304.03,334.99,-0.10"/>
        <lane id="B2TL_2" index="2" speed="25.00" length="287.84" shape="591.86,331.79,-2.91 304.03,331.79,-0.10"/>
    </edge>
    <edge id="BA2B" from="BA" to="B" priority="-1">
        <lane id="BA2B_0" index="0" speed="25.00" length="298.22" shape="600.66,642.02,-3.04 600.66,343.79,-3.04"/>
        <lane id="BA2B_1" index="1" speed="25.00" length="298.22" shape="603.86,642.02,-3.04 603.86,343.79,-3.04"/>
    </edge>
    <edge id="BB2B" from="BB" to="B" priority="-1">
        <lane id="BB2B_0" index="0" speed="25.00" length="298.22" shape="917.28,334.99,-3.04 619.06,334.99,-3.04"/>
        <lane id="BB2B_1" index="1" speed="25.00" length="298.22" shape="917.28,331.79,-3.04 619.06,331.79,-3.04"/>
    </edge>
    <edge id="BC2B" from="BC" to="B" priority="-1">
        <lane id="BC2B_0" index="0" speed="25.00" length="298.22" shape="610.26,18.37,-3.04 610.26,316.59,-3.04"/>
        <lane id="BC2B_1" index="1" speed="25.00" length="298.22" shape="607.06,18.37,-3.04 607.06,316.59,-3.04"/>
    </edge>
    <edge id="C2CA" from="C" to="CA" priority="-1">
        <lane id="C2CA_0" index="0" speed="20.00" length="154.70" shape="304.03,160.30,-0.91 458.73,160.30,-0.91"/>
        <lane id="C2CA_1" index="1" speed="20.00" length="154.70" shape="304.03,163.50,-0.91 458.73,163.50,-0.91"/>
    </edge>
    <edge id="C2CB" from="C" to="CB" priority="-1">
        <lane id="C2CB_0" index="0" speed="20.00" length="154.70" shape="288.83,154.70,-0.91 288.83,0.00,-0.91"/>
        <lane id="C2CB_1" index="1" speed="20.00" length="154.70" shape="292.03,154.70,-0.91 292.03,0.00,-0.91"/>
    </edge>
    <edge id="C2CC" from="C" to="CC" priority="-1">
        <lane id="C2CC_0" index="0" speed="20.00" length="154.70" shape="283.23,169.90,-0.91 128.53,169.90,-0.91"/>
        <lane id="C2CC_1" index="1" speed="20.00" length="154.70" shape="283.23,166.70,-0.91 128.53,166.70,-0.91"/>
    </edge>
    <edge id="C2TL" from="C" to="TL" priority="-1">
        <lane id="C2TL_0" index="0" speed="20.00" length="141.10" shape="298.43,175.50,-0.85 298.43,316.59,-0.07"/>
        <lane id="C2TL_1" index="1" speed="20.00" length="141.10" shape="295.23,175.50,-0.85 295.23,316.59,-0.07"/>
    </edge>
    <edge id="CA2C" from="CA" to="C" priority="-1">
        <lane id="CA2C_0" index="0" speed="20.00" length="154.70" shape="458.73,169.90,-0.91 304.03,169.90,-0.91"/>
        <lane id="CA2C_1" index="1" speed="20.00" length="154.70" shape="458.73,166.70,-0.91 304.03,166.70,-0.91"/>
    </edge>
    <edge id="CB2C" from="CB" to="C" priority="-1">
        <lane id="CB2C_0" index="0" speed="20.00" length="154.70" shape="298.43,0.00,-0.91 298.43,154.70,-0.91"/>
        <lane id="CB2C_1" index="1" speed="20.00" length="154.70" shape="295.23,0.00,-0.91 295.23,154.70,-0.91"/>
    </edge>
    <edge id="CC2C" from="CC" to="C" priority="-1">
        <lane id="CC2C_0" index="0" speed="20.00" length="154.70" shape="128.53,160.30,-0.91 283.23,160.30,-0.91"/>
        <lane id="CC2C_1" index="1" speed="20.00" length="154.70" shape="128.53,163.50,-0.91 283.23,163.50,-0.91"/>
    </edge>
    <edge id="D2DA" from="D" to="DA" priority="-1">
        <lane id="D2DA_0" index="0" speed="25.00" length="126.32" shape="145.71,316.59,-0.04 145.71,190.28,-0.04"/>
        <lane id="D2DA_1" index="1" speed="25.00" length="126.32" shape="148.91,316.59,-0.04 148.91,190.28,-0.04"/>
        <lane id="D2DA_2" index="2" speed="25.00" length="126.32" shape="152.11,316.59,-0.04 152.11,190.28,-0.04"/>
    </edge>
    <edge id="D2DB" from="D" to="DB" priority="-1">
        <lane id="D2DB_0" index="0" speed="25.00" length="126.32" shape="140.11,338.19,-0.04 13.79,338.19,-0.04"/>
        <lane id="D2DB_1" index="1" speed="25.00" length="126.32" shape="140.11,334.99,-0.04 13.79,334.99,-0.04"/>
        <lane id="D2DB_2" index="2" speed="25.00" length="126.32" shape="140.11,331.79,-0.04 13.79,331.79,-0.04"/>
    </edge>
    <edge id="D2DC" from="D" to="DC" priority="-1">
        <lane id="D2DC_0" index="0" speed="25.00" length="126.32" shape="161.71,343.79,-0.04 161.71,470.11,-0.04"/>
        <lane id="D2DC_1" index="1" speed="25.00" length="126.32" shape="158.51,343.79,-0.04 158.51,470.11,-0.04"/>
        <lane id="D2DC_2" index="2" speed="25.00" length="126.32" shape="155.31,343.79,-0.04 155.31,470.11,-0.04"/>
    </edge>
    <edge id="D2TL" from="D" to="TL" priority="-1">
        <lane id="D2TL_0" index="0" speed="25.00" length="115.92" shape="167.31,322.19,-0.04 283.23,322.19,-0.00"/>
        <lane id="D2TL_1" index="1" speed="25.00" length="115.92" shape="167.31,325.39,-0.04 283.23,325.39,-0.00"/>
        <lane id="D2TL_2" index="2" speed="25.00" length="115.92" shape="167.31,328.59,-0.04 283.23,328.59,-0.00"/>
    </edge>
    <edge id="DA2D" from="DA" to="D" priority="-1">
        <lane id="DA2D_0" index="0" speed="25.00" length="126.32" shape="158.51,190.28,-0.04 158.51,316.59,-0.04"/>
        <lane id="DA2D_1" index="1" speed="25.00" length="126.32" shape="155.31,190.28,-0.04 155.31,316.59,-0.04"/>
    </edge>
    <edge id="DB2D" from="DB" to="D" priority="-1">
        <lane id="DB2D_0" index="0" speed="25.00" length="126.32" shape="13.79,325.39,-0.04 140.11,325.39,-0.04"/>
        <lane id="DB2D_1" index="1" speed="25.00" length="126.32" shape="13.79,328.59,-0.04 140.11,328.59,-0.04"/>
    </edge>
    <edge id="DC2D" from="DC" to="D" priority="-1">
        <lane id="DC2D_0" index="0" speed="25.00" length="126.32" shape="148.91,470.11,-0.04 148.91,343.79,-0.04"/>