<?xml version="1.0" encoding="UTF-8"?>

<!-- generated on 2022-10-11 16:45:15 by Eclipse SUMO netconvert Version 1.14.1
<configuration xmlns:xsi="http://www.w3.org/2001/XMLSchema-instance" xsi:noNamespaceSchemaLocation="http://sumo.dlr.de/xsd/netconvertConfiguration.xsd">

    <input>
        <node-files value="../data/salt-lake-city/nodes.nod.xml"/>
        <edge-files value="../data/salt-lake-city/edges.edg.xml"/>
        <connection-files value="../data/salt-lake-city/connections.con.xml"/>
    </input>

    <output>
        <output-file value="../data/salt-lake-city/sumo/net/182.net.xml"/>
    </output>

    <tls_building>
        <tls.minor-left.max-speed value="1"/>
    </tls_building>

    <report>
        <verbose value="true"/>
    </report>

</configuration>
-->

<net version="1.9" junctionCornerDetail="5" limitTurnSpeed="5.50" xmlns:xsi="http://www.w3.org/2001/XMLSchema-instance" xsi:noNamespaceSchemaLocation="http://sumo.dlr.de/xsd/net_file.xsd">

    <location netOffset="297.06,505.14" convBoundary="0.00,0.00,883.37,1099.26" origBoundary="-297.06,-505.14,586.32,594.12" projParameter="!"/>

    <edge id=":A_0" function="internal">
        <lane id=":A_0_0" index="0" speed="6.51" length="9.03" shape="295.46,809.40,-6.88 295.11,806.95,-6.88 294.06,805.20,-6.88 292.31,804.15,-6.88 289.86,803.80,-6.88"/>
    </edge>
    <edge id=":A_1" function="internal">
        <lane id=":A_1_0" index="0" speed="20.00" length="14.40" shape="295.46,809.40,-6.88 295.46,795.00,-6.71"/>
    </edge>
    <edge id=":A_2" function="internal">
        <lane id=":A_2_0" index="0" speed="6.51" length="9.03" shape="304.26,803.80,-6.88 301.81,804.15,-6.88 300.06,805.20,-6.88 299.01,806.95,-6.88 298.66,809.40,-6.88"/>
    </edge>
    <edge id=":A_3" function="internal">
        <lane id=":A_3_0" index="0" speed="20.00" length="14.40" shape="304.26,803.80,-6.88 289.86,803.80,-6.88"/>
    </edge>
    <edge id=":A_4" function="internal">
        <lane id=":A_4_0" index="0" speed="6.51" length="9.03" shape="298.66,795.00,-6.71 299.01,797.45,-6.75 300.06,799.20,-6.79 301.81,800.25,-6.83 304.26,800.60,-6.88"/>
    </edge>
    <edge id=":A_5" function="internal">
        <lane id=":A_5_0" index="0" speed="20.00" length="14.40" shape="298.66,795.00,-6.71 298.66,809.40,-6.88"/>
    </edge>
    <edge id=":A_6" function="internal">
        <lane id=":A_6_0" index="0" speed="6.51" length="9.03" shape="289.86,800.60,-6.88 292.31,800.25,-6.83 294.06,799.20,-6.80 295.11,797.45,-6.76 295.46,795.00,-6.71"/>
    </edge>
    <edge id=":A_7" function="internal">
        <lane id=":A_7_0" index="0" speed="20.00" length="14.40" shape="289.86,800.60,-6.88 304.26,800.60,-6.88"/>
    </edge>
    <edge id=":AA_0" function="internal">
        <lane id=":AA_0_0" index="0" speed="3.65" length="4.67" shape="0.00,803.80,-6.88 -1.20,803.00,-6.88 -1.60,802.20,-6.88 -1.20,801.40,-6.88 -0.00,800.60,-6.88"/>
    </edge>
    <edge id=":AB_0" function="internal">
        <lane id=":AB_0_0" index="0" speed="3.65" length="4.67" shape="298.66,1099.26,-6.88 297.86,1100.46,-6.88 297.06,1100.86,-6.88 296.26,1100.46,-6.88 295.46,1099.26,-6.88"/>
    </edge>
    <edge id=":AC_0" function="internal">
        <lane id=":AC_0_0" index="0" speed="3.65" length="4.67" shape="594.12,800.60,-6.88 595.32,801.40,-6.88 595.72,802.20,-6.88 595.32,803.00,-6.88 594.12,803.80,-6.88"/>
    </edge>
    <edge id=":B_0" function="internal">
        <lane id=":B_0_0" index="0" speed="7.33" length="11.73" shape="599.61,605.13,-1.60 597.11,604.90,-1.60 594.94,605.93,-1.60 593.09,608.22,-1.60 591.57,611.77,-1.60"/>
    </edge>
    <edge id=":B_1" function="internal">
        <lane id=":B_1_0" index="0" speed="20.00" length="21.09" shape="599.61,605.13,-1.60 595.70,604.39,-1.59 591.01,604.02,-1.57 585.43,603.36,-1.56 578.84,601.75,-1.54"/>
    </edge>
    <edge id=":B_2" function="internal">
        <lane id=":B_2_0" index="0" speed="7.33" length="11.73" shape="594.95,591.00,-1.60 594.72,593.50,-1.60 595.75,595.67,-1.60 598.04,597.52,-1.60 601.59,599.04,-1.60"/>
    </edge>
    <edge id=":B_3" function="internal">
        <lane id=":B_3_0" index="0" speed="20.00" length="21.09" shape="594.95,591.00,-1.60 594.21,594.91,-1.60 593.84,599.60,-1.60 593.18,605.18,-1.60 591.57,611.77,-1.60"/>
    </edge>
    <edge id=":B_4" function="internal">
        <lane id=":B_4_0" index="0" speed="7.33" length="11.73" shape="580.82,595.66,-1.54 583.32,595.89,-1.55 585.49,594.87,-1.57 587.34,592.58,-1.58 588.86,589.02,-1.60"/>
    </edge>
    <edge id=":B_5" function="internal">
        <lane id=":B_5_0" index="0" speed="20.00" length="21.09" shape="580.82,595.66,-1.54 584.73,596.41,-1.55 589.42,596.77,-1.57 595.00,597.43,-1.58 601.59,599.04,-1.60"/>
    </edge>
    <edge id=":B_6" function="internal">
        <lane id=":B_6_0" index="0" speed="7.33" length="11.73" shape="585.48,609.79,-1.60 585.71,607.29,-1.59 584.69,605.12,-1.57 582.40,603.27,-1.56 578.84,601.75,-1.54"/>
    </edge>
    <edge id=":B_7" function="internal">
        <lane id=":B_7_0" index="0" speed="20.00" length="21.09" shape="585.48,609.79,-1.60 586.23,605.88,-1.60 586.59,601.19,-1.60 587.25,595.61,-1.60 588.86,589.02,-1.60"/>
    </edge>
    <edge id=":BA_0" function="internal">
        <lane id=":BA_0_0" index="0" speed="3.65" length="4.67" shape="496.48,894.05,-1.60 495.35,894.94,-1.60 494.47,895.08,-1.60 493.83,894.45,-1.60 493.44,893.06,-1.60"/>
    </edge>
    <edge id=":BB_0" function="internal">
        <lane id=":BB_0_0" index="0" speed="3.65" length="4.67" shape="883.87,694.13,-1.60 884.76,695.26,-1.60 884.90,696.14,-1.60 884.27,696.78,-1.60 882.88,697.17,-1.60"/>
    </edge>
    <edge id=":BC_0" function="internal">
        <lane id=":BC_0_0" index="0" speed="3.65" length="4.67" shape="683.95,306.74,-1.60 685.08,305.85,-1.60 685.96,305.72,-1.60 686.60,306.34,-1.60 686.99,307.73,-1.60"/>
    </edge>
    <edge id=":C_0" function="internal">
        <lane id=":C_0_0" index="0" speed="6.51" length="9.03" shape="485.45,258.10,8.56 483.26,256.94,8.51 481.23,256.76,8.46 479.35,257.56,8.42 477.62,259.34,8.37"/>
    </edge>
    <edge id=":C_1" function="internal">
        <lane id=":C_1_0" index="0" speed="20.00" length="14.40" shape="485.45,258.10,8.56 473.80,249.63,8.56"/>
    </edge>
    <edge id=":C_2" function="internal">
        <lane id=":C_2_0" index="0" speed="6.51" length="9.03" shape="486.09,247.69,8.56 484.93,249.87,8.56 484.75,251.91,8.56 485.55,253.79,8.56 487.33,255.51,8.56"/>
    </edge>
    <edge id=":C_3" function="internal">
        <lane id=":C_3_0" index="0" speed="20.00" length="14.40" shape="486.09,247.69,8.56 477.62,259.34,8.37"/>
    </edge>
    <edge id=":C_4" function="internal">
        <lane id=":C_4_0" index="0" speed="6.51" length="9.03" shape="475.68,247.05,8.56 477.86,248.20,8.56 479.90,248.38,8.56 481.78,247.58,8.56 483.50,245.81,8.56"/>
    </edge>
    <edge id=":C_5" function="internal">
        <lane id=":C_5_0" index="0" speed="20.00" length="14.40" shape="475.68,247.05,8.56 487.33,255.51,8.56"/>
    </edge>
    <edge id=":C_6" function="internal">
        <lane id=":C_6_0" index="0" speed="6.51" length="9.03" shape="475.04,257.46,8.56 476.19,255.27,8.56 476.37,253.24,8.56 475.57,251.36,8.56 473.80,249.63,8.56"/>
    </edge>
    <edge id=":C_7" function="internal">
        <lane id=":C_7_0" index="0" speed="20.00" length="14.40" shape="475.04,257.46,8.56 483.50,245.81,8.56"/>
    </edge>
    <edge id=":CA_0" function="internal">
        <lane id=":CA_0_0" index="0" speed="3.65" length="4.67" shape="734.07,434.78,8.56 734.57,436.13,8.56 734.43,437.02,8.56 733.63,437.43,8.56 732.19,437.37,8.56"/>
    </edge>
    <edge id=":CB_0" function="internal">
        <lane id=":CB_0_0" index="0" speed="3.65" length="4.67" shape="662.77,-0.94,8.56 664.12,-1.44,8.56 665.01,-1.29,8.56 665.42,-0.50,8.56 665.36,0.94,8.56"/>
    </edge>
    <edge id=":CC_0" function="internal">
        <lane id=":CC_0_0" index="0" speed="3.65" length="4.67" shape="227.05,70.36,8.56 226.55,69.01,8.56 226.70,68.13,8.56 227.49,67.72,8.56 228.93,67.77,8.56"/>
    </edge>
    <edge id=":E_0" function="internal">
        <lane id=":E_0_0" index="0" speed="6.51" length="9.03" shape="166.72,555.06,-0.42 165.63,552.84,-0.42 164.09,551.50,-0.42 162.10,551.04,-0.42 159.67,551.47,-0.42"/>
    </edge>
    <edge id=":E_1" function="internal">
        <lane id=":E_1_0" index="0" speed="20.00" length="14.40" shape="166.72,555.06,-0.42 162.27,541.37,-0.42"/>
    </edge>
    <edge id=":E_2" function="internal">
        <lane id=":E_2_0" index="0" speed="6.51" length="9.03" shape="173.36,547.02,-0.40 171.14,548.11,-0.40 169.80,549.65,-0.41 169.34,551.63,-0.41 169.77,554.07,-0.42"/>
    </edge>
    <edge id=":E_3" function="internal">
        <lane id=":E_3_0" index="0" speed="20.00" length="14.40" shape="173.36,547.02,-0.40 159.67,551.47,-0.42"/>
    </edge>
    <edge id=":E_4" function="internal">
        <lane id=":E_4_0" index="0" speed="6.51" length="9.03" shape="165.32,540.38,-0.42 166.41,542.60,-0.41 167.95,543.94,-0.41 169.93,544.40,-0.40 172.37,543.97,-0.40"/>
    </edge>
    <edge id=":E_5" function="internal">
        <lane id=":E_5_0" index="0" speed="20.00" length="14.40" shape="165.32,540.38,-0.42 169.77,554.07,-0.42"/>
    </edge>
    <edge id=":E_6" function="internal">
        <lane id=":E_6_0" index="0" speed="6.51" length="9.03" shape="158.68,548.42,-0.42 160.90,547.33,-0.42 162.24,545.79,-0.42 162.70,543.81,-0.42 162.27,541.37,-0.42"/>
    </edge>
    <edge id=":E_7" function="internal">
        <lane id=":E_7_0" index="0" speed="20.00" length="14.40" shape="158.68,548.42,-0.42 172.37,543.97,-0.40"/>
    </edge>
    <edge id=":EA_0" function="internal">
        <lane id=":EA_0_0" index="0" speed="3.65" length="4.67" shape="121.92,417.18,-0.42 122.31,415.79,-0.42 122.95,415.16,-0.42 123.83,415.29,-0.42 124.96,416.19,-0.42"/>
    </edge>
    <edge id=":EB_0" function="internal">
        <lane id=":EB_0_0" index="0" speed="3.65" length="4.67" shape="35.48,591.82,-0.42 34.09,591.43,-0.42 33.46,590.79,-0.42 33.59,589.91,-0.42 34.49,588.78,-0.42"/>
    </edge>
    <edge id=":EC_0" function="internal">
        <lane id=":EC_0_0" index="0" speed="3.65" length="4.67" shape="210.12,678.26,-0.42 209.73,679.65,-0.42 209.09,680.28,-0.42 208.21,680.15,-0.42 207.07,679.25,-0.42"/>
    </edge>
    <edge id=":TL_0" function="internal">
        <lane id=":TL_0_0" index="0" speed="6.64" length="11.72" shape="295.46,516.91 295.09,512.85,-0.01 293.98,510.22,-0.02 292.14,509.02,-0.02 289.56,509.26,-0.03"/>
    </edge>
    <edge id=":TL_1" function="internal">
        <lane id=":TL_1_0" index="0" speed="17.62" length="20.38" shape="295.46,516.91 295.86,512.32 296.98,506.80 298.64,501.46 300.70,497.40"/>
    </edge>
    <edge id=":TL_2" function="internal">
        <lane id=":TL_2_0" index="0" speed="15.48" length="15.67" shape="304.56,512.63,-0.05 299.80,510.88,-0.04 296.10,509.47,-0.04 292.88,508.80,-0.03 289.56,509.26,-0.03"/>
    </edge>
    <edge id=":TL_3" function="internal">
        <lane id=":TL_3_0" index="0" speed="7.73" length="16.33" shape="305.55,509.58,-0.05 301.09,507.47,-0.03 298.80,504.74,-0.02 298.67,501.38,-0.01 300.70,497.40"/>
    </edge>
    <edge id=":TL_4" function="internal">
        <lane id=":TL_4_0" index="0" speed="6.15" length="9.88" shape="303.29,499.28 302.13,501.62,-0.01 302.28,503.61,-0.02 303.75,505.25,-0.03 306.53,506.54,-0.05"/>
    </edge>
    <edge id=":TL_5" function="internal">
        <lane id=":TL_5_0" index="0" speed="16.76" length="18.42" shape="303.29,499.28 301.33,503.04 299.87,507.74 298.97,512.62 298.66,516.91"/>
    </edge>
    <edge id=":TL_6" function="internal">
        <lane id=":TL_6_0" index="0" speed="5.93" length="9.09" shape="293.41,497.40,-0.00 295.23,499.29,-0.00 297.06,499.91,-0.00 298.88,499.29,-0.00 300.70,497.40"/>
    </edge>
    <edge id=":TL_7" function="internal">
        <lane id=":TL_7_0" index="0" speed="15.73" length="16.20" shape="293.41,497.40,-0.00 296.03,500.32,-0.01 299.29,502.91,-0.03 302.89,505.03,-0.04 306.53,506.54,-0.05"/>
    </edge>
    <edge id=":TL_8" function="internal">
        <lane id=":TL_8_0" index="0" speed="8.11" length="18.12" shape="288.57,506.22,-0.03 292.98,505.66,-0.02 296.14,507.25,-0.01 298.03,511.00,-0.01 298.66,516.91"/>
    </edge>

    <edge id="A2AA" from="A" to="AA" priority="-1">
        <lane id="A2AA_0" index="0" speed="20.00" length="289.86" shape="289.86,803.80,-6.88 0.00,803.80,-6.88"/>
    </edge>
    <edge id="A2AB" from="A" to="AB" priority="-1">
        <lane id="A2AB_0" index="0" speed="20.00" length="289.86" shape="298.66,809.40,-6.88 298.66,1099.26,-6.88"/>
    </edge>
    <edge id="A2AC" from="A" to="AC" priority="-1">
        <lane id="A2AC_0" index="0" speed="20.00" length="289.86" shape="304.26,800.60,-6.88 594.12,800.60,-6.88"/>
    </edge>
    <edge id="A2TL" from="A" to="TL" priority="-1">
        <lane id="A2TL_0" index="0" speed="20.00" length="278.17" shape="295.46,795.00,-6.71 295.46,516.91"/>
    </edge>
    <edge id="AA2A" from="AA" to="A" priority="-1">
        <lane id="AA2A_0" index="0" speed="20.00" length="289.86" shape="-0.00,800.60,-6.88 289.86,800.60,-6.88"/>
    </edge>
    <edge id="AB2A" from="AB" to="A" priority="-1">
        <lane id="AB2A_0" index="0" speed="20.00" length="289.86" shape="295.46,1099.26,-6.88 295.46,809.40,-6.88"/>
    </edge>
    <edge id="AC2A" from="AC" to="A" priority="-1">
        <lane id="AC2A_0" index="0" speed="20.00" length="289.86" shape="594.12,803.80,-6.88 304.26,803.80,-6.88"/>
    </edge>
    <edge id="B2BA" from="B" to="BA" priority="-1">
        <lane id="B2BA_0" index="0" speed="20.00" length="297.84" shape="591.57,611.77,-1.60 499.53,895.04,-1.60"/>
        <lane id="B2BA_1" index="1" speed="20.00" length="297.84" shape="588.52,610.78,-1.60 496.48,894.05,-1.60"/>
    </edge>
    <edge id="B2BB" from="B" to="BB" priority="-1">
        <lane id="B2BB_0" index="0" speed="20.00" length="297.84" shape="601.59,599.04,-1.60 884.86,691.08,-1.60"/>
        <lane id="B2BB_1" index="1" speed="20.00" length="297.84" shape="600.60,602.09,-1.60 883.87,694.13,-1.60"/>
    </edge>
    <edge id="B2BC" from="B" to="BC" priority="-1">
        <lane id="B2BC_0" index="0" speed="20.00" length="297.84" shape="588.86,589.02,-1.60 680.90,305.75,-1.60"/>
        <lane id="B2BC_1" index="1" speed="20.00" length="297.84" shape="591.91,590.01,-1.60 683.95,306.74,-1.60"/>
    </edge>
    <edge id="B2TL" from="B" to="TL" priority="-1">
        <lane id="B2TL_0" index="0" speed="20.00" length="288.40" shape="578.84,601.75,-1.54 304.56,512.63,-0.05"/>
        <lane id="B2TL_1" index="1" speed="20.00" length="288.40" shape="579.83,598.70,-1.54 305.55,509.58,-0.05"/>
    </edge>
    <edge id="BA2B" from="BA" to="B" priority="-1">
        <lane id="BA2B_0" index="0" speed="20.00" length="297.84" shape="493.44,893.06,-1.60 585.48,609.79,-1.60"/>
    </edge>
    <edge id="BB2B" from="BB" to="B" priority="-1">
        <lane id="BB2B_0" index="0" speed="20.00" length="297.84" shape="882.88,697.17,-1.60 599.61,605.13,-1.60"/>
    </edge>
    <edge id="BC2B" from="BC" to="B" priority="-1">
        <lane id="BC2B_0" index="0" speed="20.00" length="297.84" shape="686.99,307.73,-1.60 594.95,591.00,-1.60"/>
    </edge>
    <edge id="C2CA" from="C" to="CA" priority="-1">
        <lane id="C2CA_0" index="0" speed="20.00" length="305.00" shape="487.33,255.51,8.56 734.07,434.78,8.56"/>
    </edge>
    <edge id="C2CB" from="C" to="CB" priority="-1">
        <lane id="C2CB_0" index="0" speed="20.00" length="305.00" shape="483.50,245.81,8.56 662.77,-0.94,8.56"/>
    </edge>
    <edge id="C2CC" from="C" to="CC" priority="-1">
        <lane id="C2CC_0" index="0" speed="20.00" length="305.00" shape="473.80,249.63,8.56 227.05,70.36,8.56"/>
    </edge>
    <edge id="C2TL" from="C" to="TL" priority="-1">
        <lane id="C2TL_0" index="0" speed="20.00" length="296.71" shape="477.62,259.34,8.37 303.29,499.28"/>
    </edge>
    <edge id="CA2C" from="CA" to="C" priority="-1">
        <lane id="CA2C_0" index="0" speed="20.00" length="305.00" shape="732.19,437.37,8.56 485.45,258.10,8.56"/>
    </edge>
    <edge id="CB2C" from="CB" to="C" priority="-1">
        <lane id="CB2C_0" index="0" speed="20.00" length="305.00" shape="665.36,0.94,8.56 486.09,247.69,8.56"/>
    </edge>
    <edge id="CC2C" from="CC" to="C" priority="-1">
        <lane id="CC2C_0" index="0" speed="20.00" length="305.00" shape="228.93,67.77,8.56 475.68,247.05,8.56"/>
    </edge>
    <edge id="D2DA" from="D" to="DA" priority="-1">
        <lane id="D2DA_0" index="0" speed="20.00" length="74.15" shape="253.57,437.29,-0.02 313.56,393.71,-0.02"/>
    </edge>
    <edge id="D2DB" from="D" to="DB" priority="-1">
        <lane id="D2DB_0" index="0" speed="20.00" length="74.15" shape="246.65,438.49,-0.02 203.06,378.50,-0.02"/>
    </edge>
    <edge id="D2DC" from="D" to="DC" priority="-1">
        <lane id="D2DC_0" index="0" speed="20.00" length="74.15" shape="247.85,445.41,-0.02 187.85,488.99,-0.02"/>
    </edge>
    <edge id="D2TL" from="D" to="TL" priority="-1">
        <lane id="D2TL_0" index="0" speed="20.00" length="65.75" shape="254.77,444.21,-0.02 293.41,497.40,-0.00"/>
    </edge>
    <edge id="E2EA" from="E" to="EA" priority="-1">
        <lane id="E2EA_0" index="0" speed="20.00" length="130.58" shape="162.27,541.37,-0.42 121.92,417.18,-0.42"/>
    </edge>
    <edge id="E2EB" from="E" to="EB" priority="-1">
        <lane id="E2EB_0" index="0" speed="20.00" length="130.58" shape="159.67,551.47,-0.42 35.48,591.82,-0.42"/>
    </edge>
    <edge id="E2EC" from="E" to="EC" priority="-1">
        <lane id="E2EC_0" index="0" speed="20.00" length="130.58" shape="169.77,554.07,-0.42 210.12,678.26,-0.42"/>
    </edge>
    <edge id="E2TL" from="E" to="TL" priority="-1">
        <lane id="E2TL_0" index="0" speed="20.00" length="122.18" shape="172.37,543.97,-0.40 288.57,506.22,-0.03"/>
    </edge>
    <edge id="EA2E" from="EA" to="E" priority="-1">
        <lane id="EA2E_0" index="0" speed="20.00" length="130.58" shape="124.96,416.19,-0.42 165.32,540.38,-0.42"/>
    </edge>
    <edge id="EB2E" from="EB" to="E" priority="-1">
        <lane id="EB2E_0" index="0" speed="20.00" length="130.58" shape="34.49,588.78,-0.42 158.68,548.42,-0.42"/>
    </edge>
    <edge id="EC2E" from="EC" to="E" priority="-1">
        <lane id="EC2E_0" index="0" speed="20.00" length="130.58" shape="207.07,679.25,-0.42 166.72,555.06,-0.42"/>
    </edge>
    <edge id="TL2A" from="TL" to="A" priority="-1">
        <lane id="TL2A_0" index="0" speed="20.00" length="278.17" shape="298.66,516.91 298.66,795.00,-6.71"/>
    </edge>
    <edge id="TL2B" from="TL" to="B" priority="-1">
        <lane id="TL2B_0" index="0" speed="20.00" length="288.40" shape="306.53,506.54,-0.05 580.82,595.66,-1.54"/>
    </edge>
    <edge id="TL2C" from="TL" to="C" priority="-1">
        <lane id="TL2C_0" index="0" speed="20.00" length="296.71" shape="300.70,497.40 475.04,257.46,8.56"/>
    </edge>
    <edge id="TL2E" from="TL" to="E" priority="-1">
        <lane id="TL2E_0" index="0" speed="20.00" length="122.18" shape="289.56,509.26,-0.03 173.36,547.02,-0.40"/>
    </edge>

    <tlLogic id="A" type="static" programID="0" offset="0">
        <phase duration="40" state="GGrrGGrr"/>
        <phase duration="5"  state="yyrryyrr"/>
        <phase duration="40" state="rrGGrrGG"/>
        <phase duration="5"  state="rryyrryy"/>
    </tlLogic>
    <tlLogic id="AA" type="static" programID="0" offset="0">
        <phase duration="80" state="G"/>
        <phase duration="5"  state="y"/>
        <phase duration="5"  state="r"/>
    </tlLogic>
    <tlLogic id="AB" type="static" programID="0" offset="0">
        <phase duration="80" state="G"/>
        <phase duration="5"  state="y"/>
        <phase duration="5"  state="r"/>
    </tlLogic>
    <tlLogic id="AC" type="static" programID="0" offset="0">
        <phase duration="80" state="G"/>
        <phase duration="5"  state="y"/>
        <phase duration="5"  state="r"/>
    </tlLogic>
    <tlLogic id="B" type="static" programID="0" offset="0">
        <phase duration="40" state="GGrrGGrr"/>
        <phase duration="5"  state="yyrryyrr"/>
        <phase duration="40" state="rrGGrrGG"/>
        <phase duration="5"  state="rryyrryy"/>
    </tlLogic>
    <tlLogic id="BA" type="static" programID="0" offset="0">
        <phase duration="80" state="G"/>
        <phase duration="5"  state="y"/>
        <phase duration="5"  state="r"/>
    </tlLogic>
    <tlLogic id="BB" type="static" programID="0" offset="0">
        <phase duration="80" state="G"/>
        <phase duration="5"  state="y"/>
        <phase duration="5"  state="r"/>
    </tlLogic>
    <tlLogic id="BC" type="static" programID="0" offset="0">
        <phase duration="80" state="G"/>
        <phase duration="5"  state="y"/>
        <phase duration="5"  state="r"/>
    </tlLogic>
    <tlLogic id="C" type="static" programID="0" offset="0">
        <phase duration="40" state="GGrrGGrr"/>
        <phase duration="5"  state="yyrryyrr"/>
        <phase duration="40" state="rrGGrrGG"/>
        <phase duration="5"  state="rryyrryy"/>
    </tlLogic>
    <tlLogic id="CA" type="static" programID="0" offset="0">
        <phase duration="80" state="G"/>
        <phase duration="5"  state="y"/>
        <phase duration="5"  state="r"/>
    </tlLogic>
    <tlLogic id="CB" type="static" programID="0" offset="0">
        <phase duration="80" state="G"/>
        <phase duration="5"  state="y"/>
        <phase duration="5"  state="r"/>
    </tlLogic>
    <tlLogic id="CC" type="static" programID="0" offset="0">
        <phase duration="80" state="G"/>
        <phase duration="5"  state="y"/>
        <phase duration="5"  state="r"/>
    </tlLogic>
    <tlLogic id="E" type="static" programID="0" offset="0">
        <phase duration="40" state="GGrrGGrr"/>
        <phase duration="5"  state="yyrryyrr"/>
        <phase duration="40" state="rrGGrrGG"/>
        <phase duration="5"  state="rryyrryy"/>
    </tlLogic>
    <tlLogic id="EA" type="static" programID="0" offset="0">
        <phase duration="80" state="G"/>
        <phase duration="5"  state="y"/>
        <phase duration="5"  state="r"/>
    </tlLogic>
    <tlLogic id="EB" type="static" programID="0" offset="0">
        <phase duration="80" state="G"/>
        <phase duration="5"  state="y"/>
        <phase duration="5"  state="r"/>
    </tlLogic>
    <tlLogic id="EC" type="static" programID="0" offset="0">
        <phase duration="80" state="G"/>
        <phase duration="5"  state="y"/>
        <phase duration="5"  state="r"/>
    </tlLogic>
    <tlLogic id="TL" type="static" programID="0" offset="0">
        <phase duration="16" state="GrrGGrrrG"/>
        <phase duration="5"  state="yrryyrrry"/>
        <phase duration="18" state="GGrrGGsrr"/>
        <phase duration="5"  state="yyrryysrr"/>
        <phase duration="18" state="srGGGrrrr"/>
        <phase duration="5"  state="sryyyrrrr"/>
        <phase duration="18" state="GrrrsrGGG"/>
        <phase duration="5"  state="yrrrsryyy"/>
    </tlLogic>

    <junction id="A" type="traffic_light" x="297.06" y="802.20" z="-6.88" incLanes="AB2A_0 AC2A_0 TL2A_0 AA2A_0" intLanes=":A_0_0 :A_1_0 :A_2_0 :A_3_0 :A_4_0 :A_5_0 :A_6_0 :A_7_0" shape="293.86,809.40,-6.88 300.26,809.40,-6.88 300.70,807.18,-6.88 301.26,806.40,-6.88 302.04,805.85,-6.88 303.04,805.51,-6.88 304.26,805.40,-6.88 304.26,799.00,-6.88 302.04,798.56,-6.88 301.26,798.00,-6.88 300.70,797.22,-6.88 300.37,796.22,-6.88 300.26,795.00,-6.88 293.86,795.00,-6.88 293.41,797.22,-6.88 292.86,798.00,-6.88 292.08,798.56,-6.88 291.08,798.89,-6.88 289.86,799.00,-6.88 289.86,805.40,-6.88 292.08,805.85,-6.88 292.86,806.40,-6.88 293.41,807.18,-6.88 293.75,808.18,-6.88">
        <request index="0" response="00000000" foes="00001000" cont="0"/>
        <request index="1" response="00000000" foes="11001000" cont="0"/>
        <request index="2" response="00100000" foes="00100000" cont="0"/>
        <request index="3" response="00100011" foes="00100011" cont="0"/>
        <request index="4" response="00000000" foes="10000000" cont="0"/>
        <request index="5" response="00000000" foes="10001100" cont="0"/>
        <request index="6" response="00000010" foes="00000010" cont="0"/>
        <request index="7" response="00110010" foes="00110010" cont="0"/>
    </junction>
    <junction id="AA" type="traffic_light" x="0.00" y="802.20" z="-6.88" incLanes="A2AA_0" intLanes=":AA_0_0" shape="0.00,802.20,-6.88 0.00,805.40,-6.88 0.00,802.20,-6.88">
        <request index="0" response="0" foes="0" cont="0"/>
    </junction>
    <junction id="AB" type="traffic_light" x="297.06" y="1099.26" z="-6.88" incLanes="A2AB_0" intLanes=":AB_0_0" shape="297.06,1099.26,-6.88 300.26,1099.26,-6.88 297.06,1099.26,-6.88">
        <request index="0" response="0" foes="0" cont="0"/>
    </junction>
    <junction id="AC" type="traffic_light" x="594.12" y="802.20" z="-6.88" incLanes="A2AC_0" intLanes=":AC_0_0" shape="594.12,802.20,-6.88 594.12,799.00,-6.88 594.12,802.20,-6.88">
        <request index="0" response="0" foes="0" cont="0"/>
    </junction>
    <junction id="B" type="traffic_light" x="590.22" y="600.40" z="-1.60" incLanes="BB2B_0 BC2B_0 TL2B_0 BA2B_0" intLanes=":B_0_0 :B_1_0 :B_2_0 :B_3_0 :B_4_0 :B_5_0 :B_6_0 :B_7_0" shape="599.12,606.65,-1.60 602.08,597.52,-1.60 600.03,596.74,-1.60 598.42,595.86,-1.60 597.26,594.90,-1.60 596.55,593.85,-1.60 596.29,592.72,-1.60 596.47,591.49,-1.60 587.34,588.53,-1.60 586.56,590.59,-1.60 585.68,592.19,-1.60 584.72,593.35,-1.60 583.67,594.06,-1.60 582.54,594.33,-1.60 581.31,594.14,-1.60 578.35,603.27,-1.60 580.41,604.05,-1.60 582.01,604.93,-1.60 583.17,605.89,-1.60 583.88,606.94,-1.60 584.15,608.07,-1.60 583.96,609.30,-1.60 593.09,612.26,-1.60 593.87,610.21,-1.60 594.75,608.60,-1.60 595.71,607.44,-1.60 596.76,606.73,-1.60 597.89,606.47,-1.60">
        <request index="0" response="00000000" foes="00001000" cont="0"/>
        <request index="1" response="00000000" foes="11001000" cont="0"/>
        <request index="2" response="00100000" foes="00100000" cont="0"/>
        <request index="3" response="00100011" foes="00100011" cont="0"/>
        <request index="4" response="00000000" foes="10000000" cont="0"/>
        <request index="5" response="00000000" foes="10001100" cont="0"/>
        <request index="6" response="00000010" foes="00000010" cont="0"/>
        <request index="7" response="00110010" foes="00110010" cont="0"/>
    </junction>
    <junction id="BA" type="traffic_light" x="494.96" y="893.55" z="-1.60" incLanes="B2BA_0 B2BA_1" intLanes=":BA_0_0" shape="494.96,893.55,-1.60 501.05,895.53,-1.60 494.96,893.55,-1.60">
        <request index="0" response="0" foes="0" cont="0"/>
    </junction>
    <junction id="BB" type="traffic_light" x="883.37" y="695.65" z="-1.60" incLanes="B2BB_0 B2BB_1" intLanes=":BB_0_0" shape="883.37,695.65,-1.60 885.35,689.56,-1.60 883.37,695.65,-1.60">
        <request index="0" response="0" foes="0" cont="0"/>
    </junction>
    <junction id="BC" type="traffic_light" x="685.47" y="307.24" z="-1.60" incLanes="B2BC_0 B2BC_1" intLanes=":BC_0_0" shape="685.47,307.24,-1.60 679.38,305.26,-1.60 685.47,307.24,-1.60">
        <request index="0" response="0" foes="0" cont="0"/>
    </junction>
    <junction id="C" type="traffic_light" x="480.56" y="252.57" z="8.56" incLanes="CA2C_0 CB2C_0 CC2C_0 TL2C_0" intLanes=":C_0_0 :C_1_0 :C_2_0 :C_3_0 :C_4_0 :C_5_0 :C_6_0 :C_7_0" shape="484.51,259.39,8.56 488.27,254.21,8.56 486.73,252.55,8.56 486.43,251.64,8.56 486.44,250.69,8.56 486.75,249.68,8.56 487.38,248.63,8.56 482.20,244.87,8.56 480.54,246.40,8.56 479.63,246.71,8.56 478.68,246.70,8.56 477.67,246.38,8.56 476.62,245.75,8.56 472.86,250.93,8.56 474.39,252.59,8.56 474.70,253.50,8.56 474.69,254.46,8.56 474.37,255.46,8.56 473.74,256.52,8.56 478.92,260.28,8.56 480.58,258.74,8.56 481.49,258.44,8.56 482.45,258.45,8.56 483.45,258.76,8.56">
        <request index="0" response="00000000" foes="00001000" cont="0"/>
        <request index="1" response="00000000" foes="11001000" cont="0"/>
        <request index="2" response="00100000" foes="00100000" cont="0"/>
        <request index="3" response="00100011" foes="00100011" cont="0"/>
        <request index="4" response="00000000" foes="10000000" cont="0"/>
        <request index="5" response="00000000" foes="10001100" cont="0"/>
        <request index="6" response="00000010" foes="00000010" cont="0"/>
        <request index="7" response="00110010" foes="00110010" cont="0"/>
    </junction>
    <junction id="CA" type="traffic_light" x="733.13" y="436.08" z="8.56" incLanes="C2CA_0" intLanes=":CA_0_0" shape="733.13,436.08,8.56 735.01,433.49,8.56 733.13,436.08,8.56">
        <request index="0" response="0" foes="0" cont="0"/>
    </junction>
    <junction id="CB" type="traffic_light" x="664.07" y="0.00" z="8.56" incLanes="C2CB_0" intLanes=":CB_0_0" shape="664.07,0.00,8.56 661.48,-1.88,8.56 664.07,0.00,8.56">
        <request index="0" response="0" foes="0" cont="0"/>
    </junction>
    <junction id="CC" type="traffic_light" x="227.99" y="69.07" z="8.56" incLanes="C2CC_0" intLanes=":CC_0_0" shape="227.99,69.07,8.56 226.11,71.66,8.56 227.99,69.07,8.56">
        <request index="0" response="0" foes="0" cont="0"/>
    </junction>
    <junction id="D" type="dead_end" x="250.71" y="441.35" z="-0.02" incLanes="" intLanes="" shape="253.47,445.15,-0.02 256.06,443.27,-0.02 254.66,441.06,-0.02 254.29,440.20,-0.02 254.14,439.50,-0.02 254.22,438.96,-0.02 254.51,438.59,-0.02 252.63,436.00,-0.02 250.42,437.40,-0.02 249.56,437.77,-0.02 248.86,437.91,-0.02 248.32,437.84,-0.02 247.95,437.55,-0.02 245.36,439.43,-0.02 246.76,441.64,-0.02 247.13,442.50,-0.02 247.27,443.20,-0.02 247.20,443.74,-0.02 246.91,444.11,-0.02 248.79,446.70,-0.02 251.00,445.30,-0.02 251.86,444.93,-0.02 252.56,444.78,-0.02 253.10,444.86,-0.02"/>