<?xml version="1.0" encoding="UTF-8"?>

<!-- generated on 2022-10-11 17:11:00 by Eclipse SUMO netconvert Version 1.14.1
<configuration xmlns:xsi="http://www.w3.org/2001/XMLSchema-instance" xsi:noNamespaceSchemaLocation="http://sumo.dlr.de/xsd/netconvertConfiguration.xsd">

    <input>
        <node-files value="../data/salt-lake-city/nodes.nod.xml"/>
        <edge-files value="../data/salt-lake-city/edges.edg.xml"/>
        <connection-files value="../data/salt-lake-city/connections.con.xml"/>
    </input>

    <output>
        <output-file value="../data/salt-lake-city/sumo/net/184.net.xml"/>
    </output>

    <tls_building>
        <tls.minor-left.max-speed value="1"/>
    </tls_building>

    <report>
        <verbose value="true"/>
    </report>

</configuration>
-->

<net version="1.9" junctionCornerDetail="5" limitTurnSpeed="5.50" xmlns:xsi="http://www.w3.org/2001/XMLSchema-instance" xsi:noNamespaceSchemaLocation="http://sumo.dlr.de/xsd/net_file.xsd">

    <location netOffset="401.06,802.12" convBoundary="0.00,0.00,802.12,1436.84" origBoundary="-401.06,-802.12,401.06,634.72" projParameter="!"/>

    <edge id=":A_0" function="internal">
        <lane id=":A_0_0" index="0" speed="6.51" length="9.03" shape="393.06,1133.08,-0.48 392.71,1130.63,-0.48 391.66,1128.88,-0.48 389.91,1127.83,-0.48 387.46,1127.48,-0.48"/>
    </edge>
    <edge id=":A_1" function="internal">
        <lane id=":A_1_0" index="0" speed="40.00" length="27.20" shape="393.06,1133.08,-0.48 393.06,1105.88,-0.46"/>
        <lane id=":A_1_1" index="1" speed="40.00" length="27.20" shape="396.26,1133.08,-0.48 396.26,1105.88,-0.46"/>
        <lane id=":A_1_2" index="2" speed="40.00" length="27.20" shape="399.46,1133.08,-0.48 399.46,1105.88,-0.46"/>
    </edge>
    <edge id=":A_4" function="internal">
        <lane id=":A_4_0" index="0" speed="10.36" length="5.01" shape="399.46,1133.08,-0.48 400.17,1128.12,-0.48"/>
    </edge>
    <edge id=":A_20" function="internal">
        <lane id=":A_20_0" index="0" speed="10.36" length="19.50" shape="400.17,1128.12,-0.48 400.41,1126.43,-0.48 403.26,1121.68,-0.48 408.01,1118.83,-0.48 414.66,1117.88,-0.48"/>
    </edge>
    <edge id=":A_5" function="internal">
        <lane id=":A_5_0" index="0" speed="6.51" length="9.03" shape="414.66,1127.48,-0.48 412.21,1127.83,-0.48 410.46,1128.88,-0.48 409.41,1130.63,-0.48 409.06,1133.08,-0.48"/>
    </edge>
    <edge id=":A_6" function="internal">
        <lane id=":A_6_0" index="0" speed="40.00" length="27.20" shape="414.66,1127.48,-0.48 387.46,1127.48,-0.48"/>
        <lane id=":A_6_1" index="1" speed="40.00" length="27.20" shape="414.66,1124.28,-0.48 387.46,1124.28,-0.48"/>
        <lane id=":A_6_2" index="2" speed="40.00" length="27.20" shape="414.66,1121.08,-0.48 387.46,1121.08,-0.48"/>
    </edge>
    <edge id=":A_9" function="internal">
        <lane id=":A_9_0" index="0" speed="10.36" length="5.01" shape="414.66,1121.08,-0.48 409.70,1120.37,-0.48"/>
    </edge>
    <edge id=":A_21" function="internal">
        <lane id=":A_21_0" index="0" speed="10.36" length="19.50" shape="409.70,1120.37,-0.48 408.01,1120.13,-0.48 403.26,1117.28,-0.47 400.41,1112.53,-0.47 399.46,1105.88,-0.46"/>
    </edge>
    <edge id=":A_10" function="internal">
        <lane id=":A_10_0" index="0" speed="6.51" length="9.03" shape="409.06,1105.88,-0.46 409.41,1108.33,-0.47 410.46,1110.08,-0.47 412.21,1111.13,-0.48 414.66,1111.48,-0.48"/>
    </edge>
    <edge id=":A_11" function="internal">
        <lane id=":A_11_0" index="0" speed="40.00" length="27.20" shape="409.06,1105.88,-0.46 409.06,1133.08,-0.48"/>
        <lane id=":A_11_1" index="1" speed="40.00" length="27.20" shape="405.86,1105.88,-0.46 405.86,1133.08,-0.48"/>
        <lane id=":A_11_2" index="2" speed="40.00" length="27.20" shape="402.66,1105.88,-0.46 402.66,1133.08,-0.48"/>
    </edge>
    <edge id=":A_14" function="internal">
        <lane id=":A_14_0" index="0" speed="10.36" length="5.01" shape="402.66,1105.88,-0.46 401.95,1110.84,-0.47"/>
    </edge>
    <edge id=":A_22" function="internal">
        <lane id=":A_22_0" index="0" speed="10.36" length="19.50" shape="401.95,1110.84,-0.47 401.71,1112.53,-0.47 398.86,1117.28,-0.47 394.11,1120.13,-0.48 387.46,1121.08,-0.48"/>
    </edge>
    <edge id=":A_15" function="internal">
        <lane id=":A_15_0" index="0" speed="6.51" length="9.03" shape="387.46,1111.48,-0.48 389.91,1111.13,-0.48 391.66,1110.08,-0.47 392.71,1108.33,-0.47 393.06,1105.88,-0.46"/>
    </edge>
    <edge id=":A_16" function="internal">
        <lane id=":A_16_0" index="0" speed="40.00" length="27.20" shape="387.46,1111.48,-0.48 414.66,1111.48,-0.48"/>
        <lane id=":A_16_1" index="1" speed="40.00" length="27.20" shape="387.46,1114.68,-0.48 414.66,1114.68,-0.48"/>
        <lane id=":A_16_2" index="2" speed="40.00" length="27.20" shape="387.46,1117.88,-0.48 414.66,1117.88,-0.48"/>
    </edge>
    <edge id=":A_19" function="internal">
        <lane id=":A_19_0" index="0" speed="10.36" length="5.01" shape="387.46,1117.88,-0.48 392.42,1118.59,-0.48"/>
    </edge>
    <edge id=":A_23" function="internal">
        <lane id=":A_23_0" index="0" speed="10.36" length="19.50" shape="392.42,1118.59,-0.48 394.11,1118.83,-0.48 398.86,1121.68,-0.48 401.71,1126.43,-0.48 402.66,1133.08,-0.48"/>
    </edge>
    <edge id=":AA_0" function="internal">
        <lane id=":AA_0_0" index="0" speed="3.65" length="4.67" shape="83.70,1121.08,-0.48 82.50,1120.28,-0.48 82.10,1119.48,-0.48 82.50,1118.68,-0.48 83.70,1117.88,-0.48"/>
    </edge>
    <edge id=":AB_0" function="internal">
        <lane id=":AB_0_0" index="0" speed="3.65" length="4.67" shape="402.66,1436.84,-0.48 401.86,1438.04,-0.48 401.06,1438.44,-0.48 400.26,1438.04,-0.48 399.46,1436.84,-0.48"/>
    </edge>
    <edge id=":AC_0" function="internal">
        <lane id=":AC_0_0" index="0" speed="3.65" length="4.67" shape="718.42,1117.88,-0.48 719.62,1118.68,-0.48 720.02,1119.48,-0.48 719.62,1120.28,-0.48 718.42,1121.08,-0.48"/>
    </edge>
    <edge id=":B_0" function="internal">
        <lane id=":B_0_0" index="0" speed="7.33" length="11.73" shape="541.64,815.72,-1.86 541.09,813.27,-1.82 539.44,811.52,-1.79 536.69,810.47,-1.74 532.84,810.12,-1.69"/>
    </edge>
    <edge id=":B_1" function="internal">
        <lane id=":B_1_0" index="0" speed="35.00" length="27.43" shape="541.64,815.72,-1.86 541.14,809.18,-1.86 540.04,803.51,-1.86 538.94,797.14,-1.86 538.44,788.52,-1.86"/>
        <lane id=":B_1_1" index="1" speed="35.00" length="27.43" shape="544.84,815.72,-1.86 544.34,809.18,-1.86 543.24,803.51,-1.86 542.14,797.14,-1.86 541.64,788.52,-1.86"/>
    </edge>
    <edge id=":B_3" function="internal">
        <lane id=":B_3_0" index="0" speed="10.36" length="10.84" shape="544.84,815.72,-1.86 545.79,809.07,-1.86 547.92,805.53,-1.86"/>
    </edge>
    <edge id=":B_16" function="internal">
        <lane id=":B_16_0" index="0" speed="10.36" length="13.67" shape="547.92,805.53,-1.86 548.64,804.32,-1.86 553.39,801.47,-1.86 560.04,800.52,-1.86"/>
    </edge>
    <edge id=":B_4" function="internal">
        <lane id=":B_4_0" index="0" speed="7.33" length="11.73" shape="560.04,806.92,-1.86 557.59,807.47,-1.86 555.84,809.12,-1.86 554.79,811.87,-1.86 554.44,815.72,-1.86"/>
    </edge>
    <edge id=":B_5" function="internal">
        <lane id=":B_5_0" index="0" speed="35.00" length="27.43" shape="560.04,806.92,-1.86 553.50,807.42,-1.82 547.83,808.52,-1.78 541.46,809.62,-1.74 532.84,810.12,-1.69"/>
        <lane id=":B_5_1" index="1" speed="35.00" length="27.43" shape="560.04,803.72,-1.86 553.50,804.22,-1.82 547.83,805.32,-1.78 541.46,806.42,-1.74 532.84,806.92,-1.69"/>
    </edge>
    <edge id=":B_7" function="internal">
        <lane id=":B_7_0" index="0" speed="10.36" length="10.84" shape="560.04,803.72,-1.86 553.39,802.77,-1.86 549.86,800.65,-1.86"/>
    </edge>
    <edge id=":B_17" function="internal">
        <lane id=":B_17_0" index="0" speed="10.36" length="13.67" shape="549.86,800.65,-1.86 548.64,799.92,-1.86 545.79,795.17,-1.86 544.84,788.52,-1.86"/>
    </edge>
    <edge id=":B_8" function="internal">
        <lane id=":B_8_0" index="0" speed="7.33" length="11.73" shape="551.24,788.52,-1.86 551.79,790.97,-1.86 553.44,792.72,-1.86 556.19,793.77,-1.86 560.04,794.12,-1.86"/>
    </edge>
    <edge id=":B_9" function="internal">
        <lane id=":B_9_0" index="0" speed="35.00" length="27.43" shape="551.24,788.52,-1.86 551.74,795.06,-1.86 552.84,800.74,-1.86 553.94,807.10,-1.86 554.44,815.72,-1.86"/>
        <lane id=":B_9_1" index="1" speed="35.00" length="27.43" shape="548.04,788.52,-1.86 548.54,795.06,-1.86 549.64,800.74,-1.86 550.74,807.10,-1.86 551.24,815.72,-1.86"/>
    </edge>
    <edge id=":B_11" function="internal">
        <lane id=":B_11_0" index="0" speed="10.36" length="10.84" shape="548.04,788.52,-1.86 547.09,795.17,-1.81 544.97,798.71,-1.78"/>
    </edge>
    <edge id=":B_18" function="internal">
        <lane id=":B_18_0" index="0" speed="10.36" length="13.67" shape="544.97,798.71,-1.78 544.24,799.92,-1.77 539.49,802.77,-1.73 532.84,803.72,-1.69"/>
    </edge>
    <edge id=":B_12" function="internal">
        <lane id=":B_12_0" index="0" speed="7.33" length="11.73" shape="532.84,797.32,-1.69 535.29,796.77,-1.72 537.04,795.12,-1.76 538.09,792.37,-1.80 538.44,788.52,-1.86"/>
    </edge>
    <edge id=":B_13" function="internal">
        <lane id=":B_13_0" index="0" speed="35.00" length="27.43" shape="532.84,797.32,-1.69 539.39,796.82,-1.73 545.06,795.72,-1.77 551.42,794.62,-1.81 560.04,794.12,-1.86"/>
        <lane id=":B_13_1" index="1" speed="35.00" length="27.43" shape="532.84,800.52,-1.69 539.39,800.02,-1.73 545.06,798.92,-1.77 551.42,797.82,-1.81 560.04,797.32,-1.86"/>
    </edge>
    <edge id=":B_15" function="internal">
        <lane id=":B_15_0" index="0" speed="10.36" length="10.84" shape="532.84,800.52,-1.69 539.49,801.47,-1.73 543.03,803.59,-1.76"/>
    </edge>
    <edge id=":B_19" function="internal">
        <lane id=":B_19_0" index="0" speed="10.36" length="13.67" shape="543.03,803.59,-1.76 544.24,804.32,-1.77 547.09,809.07,-1.81 548.04,815.72,-1.86"/>
    </edge>
    <edge id=":BA_0" function="internal">
        <lane id=":BA_0_0" index="0" speed="3.65" length="4.67" shape="548.04,947.50,-1.86 547.24,948.70,-1.86 546.44,949.10,-1.86 545.64,948.70,-1.86 544.84,947.50,-1.86"/>
    </edge>
    <edge id=":BB_0" function="internal">
        <lane id=":BB_0_0" index="0" speed="3.65" length="4.67" shape="691.83,800.52,-1.86 693.03,801.32,-1.86 693.43,802.12,-1.86 693.03,802.92,-1.86 691.83,803.72,-1.86"/>
    </edge>
    <edge id=":BC_0" function="internal">
        <lane id=":BC_0_0" index="0" speed="3.65" length="4.67" shape="544.84,656.74,-1.86 545.64,655.54,-1.86 546.44,655.14,-1.86 547.24,655.54,-1.86 548.04,656.74,-1.86"/>
    </edge>
    <edge id=":C_0" function="internal">
        <lane id=":C_0_0" index="0" speed="6.51" length="9.03" shape="393.06,414.66,2.95 392.71,412.21,2.98 391.66,410.46,3.00 389.91,409.41,3.03 387.46,409.06,3.06"/>
    </edge>
    <edge id=":C_1" function="internal">
        <lane id=":C_1_0" index="0" speed="40.00" length="27.20" shape="393.06,414.66,2.95 393.06,387.46,3.06"/>
        <lane id=":C_1_1" index="1" speed="40.00" length="27.20" shape="396.26,414.66,2.95 396.26,387.46,3.06"/>
        <lane id=":C_1_2" index="2" speed="40.00" length="27.20" shape="399.46,414.66,2.95 399.46,387.46,3.06"/>
    </edge>
    <edge id=":C_4" function="internal">
        <lane id=":C_4_0" index="0" speed="10.36" length="5.01" shape="399.46,414.66,2.95 400.17,409.70,2.97"/>
    </edge>
    <edge id=":C_20" function="internal">
        <lane id=":C_20_0" index="0" speed="10.36" length="19.50" shape="400.17,409.70,2.97 400.41,408.01,2.98 403.26,403.26,3.00 408.01,400.41,3.03 414.66,399.46,3.06"/>
    </edge>
    <edge id=":C_5" function="internal">
        <lane id=":C_5_0" index="0" speed="6.51" length="9.03" shape="414.66,409.06,3.06 412.21,409.41,3.03 410.46,410.46,3.00 409.41,412.21,2.98 409.06,414.66,2.95"/>
    </edge>
    <edge id=":C_6" function="internal">
        <lane id=":C_6_0" index="0" speed="40.00" length="27.20" shape="414.66,409.06,3.06 387.46,409.06,3.06"/>
        <lane id=":C_6_1" index="1" speed="40.00" length="27.20" shape="414.66,405.86,3.06 387.46,405.86,3.06"/>
        <lane id=":C_6_2" index="2" speed="40.00" length="27.20" shape="414.66,402.66,3.06 387.46,402.66,3.06"/>
    </edge>
    <edge id=":C_9" function="internal">
        <lane id=":C_9_0" index="0" speed="10.36" length="5.01" shape="414.66,402.66,3.06 409.70,401.95,3.06"/>
    </edge>
    <edge id=":C_21" function="internal">
        <lane id=":C_21_0" index="0" speed="10.36" length="19.50" shape="409.70,401.95,3.06 408.01,401.71,3.06 403.26,398.86,3.06 400.41,394.11,3.06 399.46,387.46,3.06"/>
    </edge>
    <edge id=":C_10" function="internal">
        <lane id=":C_10_0" index="0" speed="6.51" length="9.03" shape="409.06,387.46,3.06 409.41,389.91,3.06 410.46,391.66,3.06 412.21,392.71,3.06 414.66,393.06,3.06"/>
    </edge>
    <edge id=":C_11" function="internal">
        <lane id=":C_11_0" index="0" speed="40.00" length="27.20" shape="409.06,387.46,3.06 409.06,414.66,2.95"/>
        <lane id=":C_11_1" index="1" speed="40.00" length="27.20" shape="405.86,387.46,3.06 405.86,414.66,2.95"/>
        <lane id=":C_11_2" index="2" speed="40.00" length="27.20" shape="402.66,387.46,3.06 402.66,414.66,2.95"/>
    </edge>
    <edge id=":C_14" function="internal">
        <lane id=":C_14_0" index="0" speed="10.36" length="5.01" shape="402.66,387.46,3.06 401.95,392.42,3.06"/>
    </edge>
    <edge id=":C_22" function="internal">
        <lane id=":C_22_0" index="0" speed="10.36" length="19.50" shape="401.95,392.42,3.06 401.71,394.11,3.06 398.86,398.86,3.06 394.11,401.71,3.06 387.46,402.66,3.06"/>
    </edge>
    <edge id=":C_15" function="internal">
        <lane id=":C_15_0" index="0" speed="6.51" length="9.03" shape="387.46,393.06,3.06 389.91,392.71,3.06 391.66,391.66,3.06 392.71,389.91,3.06 393.06,387.46,3.06"/>
    </edge>
    <edge id=":C_16" function="internal">
        <lane id=":C_16_0" index="0" speed="40.00" length="27.20" shape="387.46,393.06,3.06 414.66,393.06,3.06"/>
        <lane id=":C_16_1" index="1" speed="40.00" length="27.20" shape="387.46,396.26,3.06 414.66,396.26,3.06"/>
        <lane id=":C_16_2" index="2" speed="40.00" length="27.20" shape="387.46,399.46,3.06 414.66,399.46,3.06"/>
    </edge>
    <edge id=":C_19" function="internal">
        <lane id=":C_19_0" index="0" speed="10.36" length="5.01" shape="387.46,399.46,3.06 392.42,400.17,3.03"/>
    </edge>
    <edge id=":C_23" function="internal">
        <lane id=":C_23_0" index="0" speed="10.36" length="19.50" shape="392.42,400.17,3.03 394.11,400.41,3.03 398.86,403.26,3.00 401.71,408.01,2.98 402.66,414.66,2.95"/>
    </edge>
    <edge id=":CA_0" function="internal">
        <lane id=":CA_0_0" index="0" speed="3.65" length="4.67" shape="802.12,399.46,3.06 803.32,400.26,3.06 803.72,401.06,3.06 803.32,401.86,3.06 802.12,402.66,3.06"/>
    </edge>
    <edge id=":CB_0" function="internal">
        <lane id=":CB_0_0" index="0" speed="3.65" length="4.67" shape="399.46,-0.00,3.06 400.26,-1.20,3.06 401.06,-1.60,3.06 401.86,-1.20,3.06 402.66,0.00,3.06"/>
    </edge>
    <edge id=":CC_0" function="internal">
        <lane id=":CC_0_0" index="0" speed="3.65" length="4.67" shape="-0.00,402.66,3.06 -1.20,401.86,3.06 -1.60,401.06,3.06 -1.20,400.26,3.06 0.00,399.46,3.06"/>
    </edge>
    <edge id=":D_0" function="internal">
        <lane id=":D_0_0" index="0" speed="6.51" length="9.03" shape="257.44,812.52,-1.78 257.09,810.07,-1.78 256.04,808.32,-1.78 254.29,807.27,-1.78 251.84,806.92,-1.78"/>
    </edge>
    <edge id=":D_1" function="internal">
        <lane id=":D_1_0" index="0" speed="35.00" length="20.80" shape="257.44,812.52,-1.78 257.44,791.72,-1.78"/>
        <lane id=":D_1_1" index="1" speed="35.00" length="20.80" shape="260.64,812.52,-1.78 260.64,791.72,-1.78"/>
    </edge>
    <edge id=":D_3" function="internal">
        <lane id=":D_3_0" index="0" speed="9.26" length="5.01" shape="260.64,812.52,-1.78 261.35,807.56,-1.74"/>
    </edge>
    <edge id=":D_16" function="internal">
        <lane id=":D_16_0" index="0" speed="9.26" length="14.34" shape="261.35,807.56,-1.74 261.39,807.27,-1.74 263.64,803.52,-1.71 267.39,801.27,-1.68 272.64,800.52,-1.64"/>
    </edge>
    <edge id=":D_4" function="internal">
        <lane id=":D_4_0" index="0" speed="6.51" length="9.03" shape="272.64,806.92,-1.64 270.19,807.27,-1.68 268.44,808.32,-1.71 267.39,810.07,-1.74 267.04,812.52,-1.78"/>
    </edge>
    <edge id=":D_5" function="internal">
        <lane id=":D_5_0" index="0" speed="35.00" length="20.80" shape="272.64,806.92,-1.64 251.84,806.92,-1.78"/>
        <lane id=":D_5_1" index="1" speed="35.00" length="20.80" shape="272.64,803.72,-1.64 251.84,803.72,-1.78"/>
    </edge>
    <edge id=":D_7" function="internal">
        <lane id=":D_7_0" index="0" speed="9.26" length="5.01" shape="272.64,803.72,-1.64 267.68,803.01,-1.68"/>
    </edge>
    <edge id=":D_17" function="internal">
        <lane id=":D_17_0" index="0" speed="9.26" length="14.34" shape="267.68,803.01,-1.68 267.39,802.97,-1.68 263.64,800.72,-1.71 261.39,796.97,-1.74 260.64,791.72,-1.78"/>
    </edge>
    <edge id=":D_8" function="internal">
        <lane id=":D_8_0" index="0" speed="6.51" length="9.03" shape="267.04,791.72,-1.78 267.39,794.17,-1.74 268.44,795.92,-1.71 270.19,796.97,-1.68 272.64,797.32,-1.64"/>
    </edge>
    <edge id=":D_9" function="internal">
        <lane id=":D_9_0" index="0" speed="35.00" length="20.80" shape="267.04,791.72,-1.78 267.04,812.52,-1.78"/>
        <lane id=":D_9_1" index="1" speed="35.00" length="20.80" shape="263.84,791.72,-1.78 263.84,812.52,-1.78"/>
    </edge>
    <edge id=":D_11" function="internal">
        <lane id=":D_11_0" index="0" speed="9.26" length="5.01" shape="263.84,791.72,-1.78 263.14,796.68,-1.78"/>
    </edge>
    <edge id=":D_18" function="internal">
        <lane id=":D_18_0" index="0" speed="9.26" length="14.34" shape="263.14,796.68,-1.78 263.09,796.97,-1.78 260.84,800.72,-1.78 257.09,802.97,-1.78 251.84,803.72,-1.78"/>
    </edge>
    <edge id=":D_12" function="internal">
        <lane id=":D_12_0" index="0" speed="6.51" length="9.03" shape="251.84,797.32,-1.78 254.29,796.97,-1.78 256.04,795.92,-1.78 257.09,794.17,-1.78 257.44,791.72,-1.78"/>
    </edge>
    <edge id=":D_13" function="internal">
        <lane id=":D_13_0" index="0" speed="35.00" length="20.80" shape="251.84,797.32,-1.78 272.64,797.32,-1.64"/>
        <lane id=":D_13_1" index="1" speed="35.00" length="20.80" shape="251.84,800.52,-1.78 272.64,800.52,-1.64"/>
    </edge>
    <edge id=":D_15" function="internal">
        <lane id=":D_15_0" index="0" speed="9.26" length="5.01" shape="251.84,800.52,-1.78 256.81,801.23,-1.78"/>
    </edge>
    <edge id=":D_19" function="internal">
        <lane id=":D_19_0" index="0" speed="9.26" length="14.34" shape="256.81,801.23,-1.78 257.09,801.27,-1.78 260.84,803.52,-1.78 263.09,807.27,-1.78 263.84,812.52,-1.78"/>
    </edge>
    <edge id=":DA_0" function="internal">
        <lane id=":DA_0_0" index="0" speed="3.65" length="4.67" shape="260.64,663.30,-1.78 261.44,662.10,-1.78 262.24,661.70,-1.78 263.04,662.10,-1.78 263.84,663.30,-1.78"/>
    </edge>
    <edge id=":DB_0" function="internal">
        <lane id=":DB_0_0" index="0" speed="3.65" length="4.67" shape="123.43,803.72,-1.78 122.23,802.92,-1.78 121.83,802.12,-1.78 122.23,801.32,-1.78 123.43,800.52,-1.78"/>
    </edge>
    <edge id=":DC_0" function="internal">
        <lane id=":DC_0_0" index="0" speed="3.65" length="4.67" shape="263.84,940.94,-1.78 263.04,942.14,-1.78 262.24,942.54,-1.78 261.44,942.14,-1.78 260.64,940.94,-1.78"/>
    </edge>
    <edge id=":D_intern_0" function="internal">
        <lane id=":D_intern_0_0" index="0" speed="35.00" length="8.54" shape="347.06,797.32,-0.69 349.52,796.82,-0.66 351.06,795.72,-0.64 352.60,794.62,-0.62 355.06,794.12,-0.59"/>
        <lane id=":D_intern_0_1" index="1" speed="35.00" length="8.54" shape="347.06,800.52,-0.69 349.52,800.02,-0.66 351.06,798.92,-0.64 352.60,797.82,-0.62 355.06,797.32,-0.59"/>
        <lane id=":D_intern_0_2" index="2" speed="35.00" length="8.54" shape="347.06,800.52,-0.69 355.06,800.52,-0.59"/>
    </edge>
    <edge id=":TL_0" function="internal">
        <lane id=":TL_0_0" index="0" speed="7.33" length="11.73" shape="393.06,815.72,-0.02 392.71,811.87,-0.07 391.66,809.12,-0.11 389.91,807.47,-0.14 387.46,806.92,-0.17"/>
    </edge>
    <edge id=":TL_1" function="internal">
        <lane id=":TL_1_0" index="0" speed="40.00" length="27.20" shape="393.06,815.72,-0.02 393.06,788.52,0.10"/>
        <lane id=":TL_1_1" index="1" speed="40.00" length="27.20" shape="396.26,815.72,-0.02 396.26,788.52,0.10"/>
        <lane id=":TL_1_2" index="2" speed="40.00" length="27.20" shape="399.46,815.72,-0.02 399.46,788.52,0.10"/>
    </edge>
    <edge id=":TL_4" function="internal">
        <lane id=":TL_4_0" index="0" speed="10.36" length="5.01" shape="399.46,815.72,-0.02 400.17,810.76,-0.05"/>
    </edge>
    <edge id=":TL_18" function="internal">
        <lane id=":TL_18_0" index="0" speed="10.36" length="19.50" shape="400.17,810.76,-0.05 400.41,809.07,-0.06 403.26,804.32,-0.10 408.01,801.47,-0.13 414.66,800.52,-0.17"/>
    </edge>
    <edge id=":TL_5" function="internal">
        <lane id=":TL_5_0" index="0" speed="6.51" length="9.03" shape="414.66,810.12,-0.17 412.21,810.47,-0.13 410.46,811.52,-0.10 409.41,813.27,-0.06 409.06,815.72,-0.02"/>
    </edge>
    <edge id=":TL_6" function="internal">
        <lane id=":TL_6_0" index="0" speed="35.00" length="27.43" shape="414.66,810.12,-0.17 406.04,809.62,-0.17 399.68,808.52,-0.17 394.00,807.42,-0.17 387.46,806.92,-0.17"/>
        <lane id=":TL_6_1" index="1" speed="35.00" length="27.43" shape="414.66,806.92,-0.17 406.04,806.42,-0.17 399.68,805.32,-0.17 394.00,804.22,-0.17 387.46,803.72,-0.17"/>
    </edge>
    <edge id=":TL_8" function="internal">
        <lane id=":TL_8_0" index="0" speed="10.88" length="13.06" shape="414.66,806.92,-0.17 408.01,805.77,-0.11 403.26,802.32,-0.04 403.06,801.92,-0.04"/>
    </edge>
    <edge id=":TL_19" function="internal">
        <lane id=":TL_19_0" index="0" speed="10.88" length="14.08" shape="403.06,801.92,-0.04 400.41,796.57,0.02 399.46,788.52,0.10"/>
    </edge>
    <edge id=":TL_9" function="internal">
        <lane id=":TL_9_0" index="0" speed="7.33" length="11.73" shape="409.06,788.52,0.10 409.41,792.37,0.01 410.46,795.12,-0.06 412.21,796.77,-0.11 414.66,797.32,-0.17"/>
    </edge>
    <edge id=":TL_10" function="internal">
        <lane id=":TL_10_0" index="0" speed="40.00" length="27.20" shape="409.06,788.52,0.10 409.06,815.72,-0.02"/>
        <lane id=":TL_10_1" index="1" speed="40.00" length="27.20" shape="405.86,788.52,0.10 405.86,815.72,-0.02"/>
        <lane id=":TL_10_2" index="2" speed="40.00" length="27.20" shape="402.66,788.52,0.10 402.66,815.72,-0.02"/>
    </edge>
    <edge id=":TL_13" function="internal">
        <lane id=":TL_13_0" index="0" speed="10.36" length="5.01" shape="402.66,788.52,0.10 401.95,793.48,0.05"/>
    </edge>
    <edge id=":TL_20" function="internal">
        <lane id=":TL_20_0" index="0" speed="10.36" length="19.50" shape="401.95,793.48,0.05 401.71,795.17,0.03 398.86,799.92,-0.04 394.11,802.77,-0.10 387.46,803.72,-0.17"/>
    </edge>
    <edge id=":TL_14" function="internal">
        <lane id=":TL_14_0" index="0" speed="6.51" length="9.04" shape="387.46,794.12,-0.17 389.91,793.77,-0.10 391.66,792.72,-0.04 392.71,790.97,0.03 393.06,788.52,0.10"/>
    </edge>
    <edge id=":TL_15" function="internal">
        <lane id=":TL_15_0" index="0" speed="35.00" length="27.43" shape="387.46,794.12,-0.17 396.08,794.62,-0.17 402.45,795.72,-0.17 408.12,796.82,-0.17 414.66,797.32,-0.17"/>
        <lane id=":TL_15_1" index="1" speed="35.00" length="27.43" shape="387.46,797.32,-0.17 396.08,797.82,-0.17 402.45,798.92,-0.17 408.12,800.02,-0.17 414.66,800.52,-0.17"/>
    </edge>
    <edge id=":TL_17" function="internal">
        <lane id=":TL_17_0" index="0" speed="10.36" length="7.16" shape="387.46,800.52,-0.17 394.11,801.47,-0.13 394.49,801.70,-0.13"/>
    </edge>
    <edge id=":TL_21" function="internal">
        <lane id=":TL_21_0" index="0" speed="10.36" length="17.36" shape="394.49,801.70,-0.13 398.86,804.32,-0.10 401.71,809.07,-0.06 402.66,815.72,-0.02"/>
    </edge>

    <edge id="A2AA" from="A" to="AA" priority="-1">
        <lane id="A2AA_0" index="0" speed="40.00" length="303.76" shape="387.46,1127.48,-0.48 83.70,1127.48,-0.48"/>
        <lane id="A2AA_1" index="1" speed="40.00" length="303.76" shape="387.46,1124.28,-0.48 83.70,1124.28,-0.48"/>
        <lane id="A2AA_2" index="2" speed="40.00" length="303.76" shape="387.46,1121.08,-0.48 83.70,1121.08,-0.48"/>
    </edge>
    <edge id="A2AB" from="A" to="AB" priority="-1">
        <lane id="A2AB_0" index="0" speed="40.00" length="303.76" shape="409.06,1133.08,-0.48 409.06,1436.84,-0.48"/>
        <lane id="A2AB_1" index="1" speed="40.00" length="303.76" shape="405.86,1133.08,-0.48 405.86,1436.84,-0.48"/>
        <lane id="A2AB_2" index="2" speed="40.00" length="303.76" shape="402.66,1133.08,-0.48 402.66,1436.84,-0.48"/>
    </edge>
    <edge id="A2AC" from="A" to="AC" priority="-1">
        <lane id="A2AC_0" index="0" speed="40.00" length="303.76" shape="414.66,1111.48,-0.48 718.42,1111.48,-0.48"/>
        <lane id="A2AC_1" index="1" speed="40.00" length="303.76" shape="414.66,1114.68,-0.48 718.42,1114.68,-0.48"/>
        <lane id="A2AC_2" index="2" speed="40.00" length="303.76" shape="414.66,1117.88,-0.48 718.42,1117.88,-0.48"/>
    </edge>
    <edge id="A2TL" from="A" to="TL" priority="-1">
        <lane id="A2TL_0" index="0" speed="40.00" length="290.16" shape="393.06,1105.88,-0.46 393.06,815.72,-0.02"/>
        <lane id="A2TL_1" index="1" speed="40.00" length="290.16" shape="396.26,1105.88,-0.46 396.26,815.72,-0.02"/>
        <lane id="A2TL_2" index="2" speed="40.00" length="290.16" shape="399.46,1105.88,-0.46 399.46,815.72,-0.02"/>
    </edge>
    <edge id="AA2A" from="AA" to="A" priority="-1">
        <lane id="AA2A_0" index="0" speed="40.00" length="303.76" shape="83.70,1111.48,-0.48 387.46,1111.48,-0.48"/>
        <lane id="AA2A_1" index="1" speed="40.00" length="303.76" shape="83.70,1114.68,-0.48 387.46,1114.68,-0.48"/>
        <lane id="AA2A_2" index="2" speed="40.00" length="303.76" shape="83.70,1117.88,-0.48 387.46,1117.88,-0.48"/>
    </edge>
    <edge id="AB2A" from="AB" to="A" priority="-1">
        <lane id="AB2A_0" index="0" speed="40.00" length="303.76" shape="393.06,1436.84,-0.48 393.06,1133.08,-0.48"/>
        <lane id="AB2A_1" index="1" speed="40.00" length="303.76" shape="396.26,1436.84,-0.48 396.26,1133.08,-0.48"/>
        <lane id="AB2A_2" index="2" speed="40.00" length="303.76" shape="399.46,1436.84,-0.48 399.46,1133.08,-0.48"/>
    </edge>
    <edge id="AC2A" from="AC" to="A" priority="-1">
        <lane id="AC2A_0" index="0" speed="40.00" length="303.76" shape="718.42,1127.48,-0.48 414.66,1127.48,-0.48"/>
        <lane id="AC2A_1" index="1" speed="40.00" length="303.76" shape="718.42,1124.28,-0.48 414.66,1124.28,-0.48"/>
        <lane id="AC2A_2" index="2" speed="40.00" length="303.76" shape="718.42,1121.08,-0.48 414.66,1121.08,-0.48"/>
    </edge>
    <edge id="B2BA" from="B" to="BA" priority="-1">
        <lane id="B2BA_0" index="0" speed="35.00" length="131.78" shape="554.44,815.72,-1.86 554.44,947.50,-1.86"/>
        <lane id="B2BA_1" index="1" speed="35.00" length="131.78" shape="551.24,815.72,-1.86 551.24,947.50,-1.86"/>
        <lane id="B2BA_2" index="2" speed="35.00" length="131.78" shape="548.04,815.72,-1.86 548.04,947.50,-1.86"/>
    </edge>
    <edge id="B2BB" from="B" to="BB" priority="-1">
        <lane id="B2BB_0" index="0" speed="35.00" length="131.78" shape="560.04,794.12,-1.86 691.83,794.12,-1.86"/>
        <lane id="B2BB_1" index="1" speed="35.00" length="131.78" shape="560.04,797.32,-1.86 691.83,797.32,-1.86"/>
        <lane id="B2BB_2" index="2" speed="35.00" length="131.78" shape="560.04,800.52,-1.86 691.83,800.52,-1.86"/>
    </edge>
    <edge id="B2BC" from="B" to="BC" priority="-1">
        <lane id="B2BC_0" index="0" speed="35.00" length="131.78" shape="538.44,788.52,-1.86 538.44,656.74,-1.86"/>
        <lane id="B2BC_1" index="1" speed="35.00" length="131.78" shape="541.64,788.52,-1.86 541.64,656.74,-1.86"/>
        <lane id="B2BC_2" index="2" speed="35.00" length="131.78" shape="544.84,788.52,-1.86 544.84,656.74,-1.86"/>
    </edge>
    <edge id="B2TL" from="B" to="TL" priority="-1">
        <lane id="B2TL_0" index="0" speed="35.00" length="118.19" shape="532.84,810.12,-1.69 414.66,810.12,-0.17"/>
        <lane id="B2TL_1" index="1" speed="35.00" length="118.19" shape="532.84,806.92,-1.69 414.66,806.92,-0.17"/>
        <lane id="B2TL_2" index="2" speed="35.00" length="118.19" shape="532.84,803.72,-1.69 414.66,803.72,-0.17"/>
    </edge>
    <edge id="BA2B" from="BA" to="B" priority="-1">
        <lane id="BA2B_0" index="0" speed="35.00" length="131.78" shape="541.64,947.50,-1.86 541.64,815.72,-1.86"/>
        <lane id="BA2B_1" index="1" speed="35.00" length="131.78" shape="544.84,947.50,-1.86 544.84,815.72,-1.86"/>
    </edge>
    <edge id="BB2B" from="BB" to="B" priority="-1">
        <lane id="BB2B_0" index="0" speed="35.00" length="131.78" shape="691.83,806.92,-1.86 560.04,806.92,-1.86"/>
        <lane id="BB2B_1" index="1" speed="35.00" length="131.78" shape="691.83,803.72,-1.86 560.04,803.72,-1.86"/>
    </edge>
    <edge id="BC2B" from="BC" to="B" priority="-1">
        <lane id="BC2B_0" index="0" speed="35.00" length="131.78" shape="551.24,656.74,-1.86 551.24,788.52,-1.86"/>
        <lane id="BC2B_1" index="1" speed="35.00" length="131.78" shape="548.04,656.74,-1.86 548.04,788.52,-1.86"/>
    </edge>
    <edge id="C2CA" from="C" to="CA" priority="-1">