<?xml version="1.0" encoding="UTF-8"?>

<!-- generated on 2022-10-11 17:11:00 by Eclipse SUMO netconvert Version 1.14.1
<configuration xmlns:xsi="http://www.w3.org/2001/XMLSchema-instance" xsi:noNamespaceSchemaLocation="http://sumo.dlr.de/xsd/netconvertConfiguration.xsd">

    <input>
        <node-files value="../data/salt-lake-city/nodes.nod.xml"/>
        <edge-files value="../data/salt-lake-city/edges.edg.xml"/>
        <connection-files value="../data/salt-lake-city/connections.con.xml"/>
    </input>

    <output>
        <output-file value="../data/salt-lake-city/sumo/net/188.net.xml"/>
    </output>

    <tls_building>
        <tls.minor-left.max-speed value="1"/>
    </tls_building>

    <report>
        <verbose value="true"/>
    </report>

</configuration>
-->

<net version="1.9" junctionCornerDetail="5" limitTurnSpeed="5.50" xmlns:xsi="http://www.w3.org/2001/XMLSchema-instance" xsi:noNamespaceSchemaLocation="http://sumo.dlr.de/xsd/net_file.xsd">

    <location netOffset="617.95,640.76" convBoundary="0.00,0.00,1259.30,1272.57" origBoundary="-617.95,-640.76,641.36,631.81" projParameter="!"/>

    <edge id=":A_0" function="internal">
        <lane id=":A_0_0" index="0" speed="6.51" length="9.03" shape="613.15,967.07,-12.23 612.80,964.62,-12.23 611.75,962.87,-12.23 610.00,961.82,-12.23 607.55,961.47,-12.23"/>
    </edge>
    <edge id=":A_1" function="internal">
        <lane id=":A_1_0" index="0" speed="30.00" length="20.80" shape="613.15,967.07,-12.23 613.15,946.27,-12.23"/>
        <lane id=":A_1_1" index="1" speed="30.00" length="20.80" shape="616.35,967.07,-12.23 616.35,946.27,-12.23"/>
    </edge>
    <edge id=":A_3" function="internal">
        <lane id=":A_3_0" index="0" speed="9.26" length="5.01" shape="616.35,967.07,-12.23 617.06,962.11,-12.23"/>
    </edge>
    <edge id=":A_16" function="internal">
        <lane id=":A_16_0" index="0" speed="9.26" length="14.34" shape="617.06,962.11,-12.23 617.10,961.82,-12.23 619.35,958.07,-12.23 623.10,955.82,-12.23 628.35,955.07,-12.23"/>
    </edge>
    <edge id=":A_4" function="internal">
        <lane id=":A_4_0" index="0" speed="6.51" length="9.03" shape="628.35,961.47,-12.23 625.90,961.82,-12.23 624.15,962.87,-12.23 623.10,964.62,-12.23 622.75,967.07,-12.23"/>
    </edge>
    <edge id=":A_5" function="internal">
        <lane id=":A_5_0" index="0" speed="30.00" length="20.80" shape="628.35,961.47,-12.23 607.55,961.47,-12.23"/>
        <lane id=":A_5_1" index="1" speed="30.00" length="20.80" shape="628.35,958.27,-12.23 607.55,958.27,-12.23"/>
    </edge>
    <edge id=":A_7" function="internal">
        <lane id=":A_7_0" index="0" speed="9.26" length="5.01" shape="628.35,958.27,-12.23 623.38,957.56,-12.23"/>
    </edge>
    <edge id=":A_17" function="internal">
        <lane id=":A_17_0" index="0" speed="9.26" length="14.34" shape="623.38,957.56,-12.23 623.10,957.52,-12.23 619.35,955.27,-12.23 617.10,951.52,-12.23 616.35,946.27,-12.23"/>
    </edge>
    <edge id=":A_8" function="internal">
        <lane id=":A_8_0" index="0" speed="6.51" length="9.03" shape="622.75,946.27,-12.23 623.10,948.72,-12.23 624.15,950.47,-12.23 625.90,951.52,-12.23 628.35,951.87,-12.23"/>
    </edge>
    <edge id=":A_9" function="internal">
        <lane id=":A_9_0" index="0" speed="30.00" length="20.80" shape="622.75,946.27,-12.23 622.75,967.07,-12.23"/>
        <lane id=":A_9_1" index="1" speed="30.00" length="20.80" shape="619.55,946.27,-12.23 619.55,967.07,-12.23"/>
    </edge>
    <edge id=":A_11" function="internal">
        <lane id=":A_11_0" index="0" speed="9.26" length="5.01" shape="619.55,946.27,-12.23 618.84,951.23,-12.23"/>
    </edge>
    <edge id=":A_18" function="internal">
        <lane id=":A_18_0" index="0" speed="9.26" length="14.34" shape="618.84,951.23,-12.23 618.80,951.52,-12.23 616.55,955.27,-12.23 612.80,957.52,-12.23 607.55,958.27,-12.23"/>
    </edge>
    <edge id=":A_12" function="internal">
        <lane id=":A_12_0" index="0" speed="6.51" length="9.03" shape="607.55,951.87,-12.23 610.00,951.52,-12.23 611.75,950.47,-12.23 612.80,948.72,-12.23 613.15,946.27,-12.23"/>
    </edge>
    <edge id=":A_13" function="internal">
        <lane id=":A_13_0" index="0" speed="30.00" length="20.80" shape="607.55,951.87,-12.23 628.35,951.87,-12.23"/>
        <lane id=":A_13_1" index="1" speed="30.00" length="20.80" shape="607.55,955.07,-12.23 628.35,955.07,-12.23"/>
    </edge>
    <edge id=":A_15" function="internal">
        <lane id=":A_15_0" index="0" speed="9.26" length="5.01" shape="607.55,955.07,-12.23 612.51,955.78,-12.23"/>
    </edge>
    <edge id=":A_19" function="internal">
        <lane id=":A_19_0" index="0" speed="9.26" length="14.34" shape="612.51,955.78,-12.23 612.80,955.82,-12.23 616.55,958.07,-12.23 618.80,961.82,-12.23 619.55,967.07,-12.23"/>
    </edge>
    <edge id=":AA_0" function="internal">
        <lane id=":AA_0_0" index="0" speed="3.65" length="4.67" shape="302.04,958.27,-12.23 300.84,957.47,-12.23 300.44,956.67,-12.23 300.84,955.87,-12.23 302.04,955.07,-12.23"/>
    </edge>
    <edge id=":AB_0" function="internal">
        <lane id=":AB_0_0" index="0" speed="3.65" length="4.67" shape="619.55,1272.57,-12.23 618.75,1273.77,-12.23 617.95,1274.17,-12.23 617.15,1273.77,-12.23 616.35,1272.57,-12.23"/>
    </edge>
    <edge id=":AC_0" function="internal">
        <lane id=":AC_0_0" index="0" speed="3.65" length="4.67" shape="933.85,955.07,-12.23 935.05,955.87,-12.23 935.45,956.67,-12.23 935.05,957.47,-12.23 933.85,958.27,-12.23"/>
    </edge>
    <edge id=":B_0" function="internal">
        <lane id=":B_0_0" index="0" speed="7.33" length="11.73" shape="933.82,654.36,7.53 933.27,651.91,7.53 931.62,650.16,7.53 928.87,649.11,7.53 925.02,648.76,7.53"/>
    </edge>
    <edge id=":B_1" function="internal">
        <lane id=":B_1_0" index="0" speed="30.00" length="27.43" shape="933.82,654.36,7.53 933.32,647.82,7.53 932.22,642.15,7.53 931.12,635.78,7.53 930.62,627.16,7.53"/>
        <lane id=":B_1_1" index="1" speed="30.00" length="27.43" shape="937.02,654.36,7.53 936.52,647.82,7.53 935.42,642.15,7.53 934.32,635.78,7.53 933.82,627.16,7.53"/>
    </edge>
    <edge id=":B_3" function="internal">
        <lane id=":B_3_0" index="0" speed="10.36" length="10.84" shape="937.02,654.36,7.53 937.97,647.71,7.53 940.10,644.17,7.53"/>
    </edge>
    <edge id=":B_16" function="internal">
        <lane id=":B_16_0" index="0" speed="10.36" length="13.67" shape="940.10,644.17,7.53 940.82,642.96,7.53 945.57,640.11,7.53 952.22,639.16,7.53"/>
    </edge>
    <edge id=":B_4" function="internal">
        <lane id=":B_4_0" index="0" speed="7.33" length="11.73" shape="952.22,645.56,7.53 949.77,646.11,7.53 948.02,647.76,7.53 946.97,650.51,7.53 946.62,654.36,7.53"/>
    </edge>
    <edge id=":B_5" function="internal">
        <lane id=":B_5_0" index="0" speed="30.00" length="27.43" shape="952.22,645.56,7.53 945.68,646.06,7.53 940.01,647.16,7.53 933.64,648.26,7.53 925.02,648.76,7.53"/>
        <lane id=":B_5_1" index="1" speed="30.00" length="27.43" shape="952.22,642.36,7.53 945.68,642.86,7.53 940.01,643.96,7.53 933.64,645.06,7.53 925.02,645.56,7.53"/>
    </edge>
    <edge id=":B_7" function="internal">
        <lane id=":B_7_0" index="0" speed="10.36" length="10.84" shape="952.22,642.36,7.53 945.57,641.41,7.53 942.04,639.29,7.53"/>
    </edge>
    <edge id=":B_17" function="internal">
        <lane id=":B_17_0" index="0" speed="10.36" length="13.67" shape="942.04,639.29,7.53 940.82,638.56,7.53 937.97,633.81,7.53 937.02,627.16,7.53"/>
    </edge>
    <edge id=":B_8" function="internal">
        <lane id=":B_8_0" index="0" speed="7.33" length="11.73" shape="943.42,627.16,7.53 943.97,629.61,7.53 945.62,631.36,7.53 948.37,632.41,7.53 952.22,632.76,7.53"/>
    </edge>
    <edge id=":B_9" function="internal">
        <lane id=":B_9_0" index="0" speed="30.00" length="27.43" shape="943.42,627.16,7.53 943.92,633.71,7.53 945.02,639.38,7.53 946.12,645.74,7.53 946.62,654.36,7.53"/>
        <lane id=":B_9_1" index="1" speed="30.00" length="27.43" shape="940.22,627.16,7.53 940.72,633.71,7.53 941.82,639.38,7.53 942.92,645.74,7.53 943.42,654.36,7.53"/>
    </edge>
    <edge id=":B_11" function="internal">
        <lane id=":B_11_0" index="0" speed="10.36" length="10.84" shape="940.22,627.16,7.53 939.27,633.81,7.53 937.15,637.35,7.53"/>
    </edge>
    <edge id=":B_18" function="internal">
        <lane id=":B_18_0" index="0" speed="10.36" length="13.67" shape="937.15,637.35,7.53 936.42,638.56,7.53 931.67,641.41,7.53 925.02,642.36,7.53"/>
    </edge>
    <edge id=":B_12" function="internal">
        <lane id=":B_12_0" index="0" speed="7.33" length="11.73" shape="925.02,635.96,7.53 927.47,635.41,7.53 929.22,633.76,7.53 930.27,631.01,7.53 930.62,627.16,7.53"/>
    </edge>
    <edge id=":B_13" function="internal">
        <lane id=":B_13_0" index="0" speed="30.00" length="27.43" shape="925.02,635.96,7.53 931.57,635.46,7.53 937.24,634.36,7.53 943.60,633.26,7.53 952.22,632.76,7.53"/>
        <lane id=":B_13_1" index="1" speed="30.00" length="27.43" shape="925.02,639.16,7.53 931.57,638.66,7.53 937.24,637.56,7.53 943.60,636.46,7.53 952.22,635.96,7.53"/>
    </edge>
    <edge id=":B_15" function="internal">
        <lane id=":B_15_0" index="0" speed="10.36" length="10.84" shape="925.02,639.16,7.53 931.67,640.11,7.53 935.21,642.24,7.53"/>
    </edge>
    <edge id=":B_19" function="internal">
        <lane id=":B_19_0" index="0" speed="10.36" length="13.67" shape="935.21,642.24,7.53 936.42,642.96,7.53 939.27,647.71,7.53 940.22,654.36,7.53"/>
    </edge>
    <edge id=":BA_0" function="internal">
        <lane id=":BA_0_0" index="0" speed="3.65" length="4.67" shape="940.22,961.44,7.53 939.42,962.64,7.53 938.62,963.04,7.53 937.82,962.64,7.53 937.02,961.44,7.53"/>
    </edge>
    <edge id=":BB_0" function="internal">
        <lane id=":BB_0_0" index="0" speed="3.65" length="4.67" shape="1259.30,639.16,7.53 1260.50,639.96,7.53 1260.90,640.76,7.53 1260.50,641.56,7.53 1259.30,642.36,7.53"/>
    </edge>
    <edge id=":BC_0" function="internal">
        <lane id=":BC_0_0" index="0" speed="3.65" length="4.67" shape="937.02,320.08,7.53 937.82,318.88,7.53 938.62,318.48,7.53 939.42,318.88,7.53 940.22,320.08,7.53"/>
    </edge>
    <edge id=":C_0" function="internal">
        <lane id=":C_0_0" index="0" speed="6.51" length="9.03" shape="613.15,330.78,16.79 612.80,328.33,16.79 611.75,326.58,16.79 610.00,325.53,16.79 607.55,325.18,16.79"/>
    </edge>
    <edge id=":C_1" function="internal">
        <lane id=":C_1_0" index="0" speed="30.00" length="20.80" shape="613.15,330.78,16.79 613.15,309.98,16.79"/>
        <lane id=":C_1_1" index="1" speed="30.00" length="20.80" shape="616.35,330.78,16.79 616.35,309.98,16.79"/>
    </edge>
    <edge id=":C_3" function="internal">
        <lane id=":C_3_0" index="0" speed="9.26" length="5.01" shape="616.35,330.78,16.79 617.06,325.82,16.79"/>
    </edge>
    <edge id=":C_16" function="internal">
        <lane id=":C_16_0" index="0" speed="9.26" length="14.34" shape="617.06,325.82,16.79 617.10,325.53,16.79 619.35,321.78,16.79 623.10,319.53,16.79 628.35,318.78,16.79"/>
    </edge>
    <edge id=":C_4" function="internal">
        <lane id=":C_4_0" index="0" speed="6.51" length="9.03" shape="628.35,325.18,16.79 625.90,325.53,16.79 624.15,326.58,16.79 623.10,328.33,16.79 622.75,330.78,16.79"/>
    </edge>
    <edge id=":C_5" function="internal">
        <lane id=":C_5_0" index="0" speed="30.00" length="20.80" shape="628.35,325.18,16.79 607.55,325.18,16.79"/>
        <lane id=":C_5_1" index="1" speed="30.00" length="20.80" shape="628.35,321.98,16.79 607.55,321.98,16.79"/>
    </edge>
    <edge id=":C_7" function="internal">
        <lane id=":C_7_0" index="0" speed="9.26" length="5.01" shape="628.35,321.98,16.79 623.38,321.27,16.79"/>
    </edge>
    <edge id=":C_17" function="internal">
        <lane id=":C_17_0" index="0" speed="9.26" length="14.34" shape="623.38,321.27,16.79 623.10,321.23,16.79 619.35,318.98,16.79 617.10,315.23,16.79 616.35,309.98,16.79"/>
    </edge>
    <edge id=":C_8" function="internal">
        <lane id=":C_8_0" index="0" speed="6.51" length="9.03" shape="622.75,309.98,16.79 623.10,312.43,16.79 624.15,314.18,16.79 625.90,315.23,16.79 628.35,315.58,16.79"/>
    </edge>
    <edge id=":C_9" function="internal">
        <lane id=":C_9_0" index="0" speed="30.00" length="20.80" shape="622.75,309.98,16.79 622.75,330.78,16.79"/>
        <lane id=":C_9_1" index="1" speed="30.00" length="20.80" shape="619.55,309.98,16.79 619.55,330.78,16.79"/>
    </edge>
    <edge id=":C_11" function="internal">
        <lane id=":C_11_0" index="0" speed="9.26" length="5.01" shape="619.55,309.98,16.79 618.84,314.94,16.79"/>
    </edge>
    <edge id=":C_18" function="internal">
        <lane id=":C_18_0" index="0" speed="9.26" length="14.34" shape="618.84,314.94,16.79 618.80,315.23,16.79 616.55,318.98,16.79 612.80,321.23,16.79 607.55,321.98,16.79"/>
    </edge>
    <edge id=":C_12" function="internal">
        <lane id=":C_12_0" index="0" speed="6.51" length="9.03" shape="607.55,315.58,16.79 610.00,315.23,16.79 611.75,314.18,16.79 612.80,312.43,16.79 613.15,309.98,16.79"/>
    </edge>
    <edge id=":C_13" function="internal">
        <lane id=":C_13_0" index="0" speed="30.00" length="20.80" shape="607.55,315.58,16.79 628.35,315.58,16.79"/>
        <lane id=":C_13_1" index="1" speed="30.00" length="20.80" shape="607.55,318.78,16.79 628.35,318.78,16.79"/>
    </edge>
    <edge id=":C_15" function="internal">
        <lane id=":C_15_0" index="0" speed="9.26" length="5.01" shape="607.55,318.78,16.79 612.51,319.49,16.79"/>
    </edge>
    <edge id=":C_19" function="internal">
        <lane id=":C_19_0" index="0" speed="9.26" length="14.34" shape="612.51,319.49,16.79 612.80,319.53,16.79 616.55,321.78,16.79 618.80,325.53,16.79 619.55,330.78,16.79"/>
    </edge>
    <edge id=":CA_0" function="internal">
        <lane id=":CA_0_0" index="0" speed="3.65" length="4.67" shape="938.33,318.78,16.79 939.53,319.58,16.79 939.93,320.38,16.79 939.53,321.18,16.79 938.33,321.98,16.79"/>
    </edge>
    <edge id=":CB_0" function="internal">
        <lane id=":CB_0_0" index="0" speed="3.65" length="4.67" shape="616.35,-0.00,16.79 617.15,-1.20,16.79 617.95,-1.60,16.79 618.75,-1.20,16.79 619.55,-0.00,16.79"/>
    </edge>
    <edge id=":CC_0" function="internal">
        <lane id=":CC_0_0" index="0" speed="3.65" length="4.67" shape="297.56,321.98,16.79 296.36,321.18,16.79 295.96,320.38,16.79 296.36,319.58,16.79 297.56,318.78,16.79"/>
    </edge>
    <edge id=":D_0" function="internal">
        <lane id=":D_0_0" index="0" speed="7.33" length="11.73" shape="304.17,654.36,7.63 303.62,651.91,7.63 301.97,650.16,7.63 299.22,649.11,7.63 295.37,648.76,7.63"/>
    </edge>
    <edge id=":D_1" function="internal">
        <lane id=":D_1_0" index="0" speed="30.00" length="27.43" shape="304.17,654.36,7.63 303.67,647.82,7.63 302.57,642.15,7.63 301.47,635.78,7.63 300.97,627.16,7.63"/>
        <lane id=":D_1_1" index="1" speed="30.00" length="27.43" shape="307.37,654.36,7.63 306.87,647.82,7.63 305.77,642.15,7.63 304.67,635.78,7.63 304.17,627.16,7.63"/>
    </edge>
    <edge id=":D_3" function="internal">
        <lane id=":D_3_0" index="0" speed="10.36" length="10.84" shape="307.37,654.36,7.63 308.32,647.71,7.63 310.45,644.17,7.63"/>
    </edge>
    <edge id=":D_16" function="internal">
        <lane id=":D_16_0" index="0" speed="10.36" length="13.67" shape="310.45,644.17,7.63 311.17,642.96,7.63 315.92,640.11,7.63 322.57,639.16,7.63"/>
    </edge>
    <edge id=":D_4" function="internal">
        <lane id=":D_4_0" index="0" speed="7.33" length="11.73" shape="322.57,645.56,7.63 320.12,646.11,7.63 318.37,647.76,7.63 317.32,650.51,7.63 316.97,654.36,7.63"/>
    </edge>
    <edge id=":D_5" function="internal">
        <lane id=":D_5_0" index="0" speed="30.00" length="27.43" shape="322.57,645.56,7.63 316.03,646.06,7.63 310.36,647.16,7.63 303.99,648.26,7.63 295.37,648.76,7.63"/>
        <lane id=":D_5_1" index="1" speed="30.00" length="27.43" shape="322.57,642.36,7.63 316.03,642.86,7.63 310.36,643.96,7.63 303.99,645.06,7.63 295.37,645.56,7.63"/>
    </edge>
    <edge id=":D_7" function="internal">
        <lane id=":D_7_0" index="0" speed="10.36" length="10.84" shape="322.57,642.36,7.63 315.92,641.41,7.63 312.38,639.29,7.63"/>
    </edge>
    <edge id=":D_17" function="internal">
        <lane id=":D_17_0" index="0" speed="10.36" length="13.67" shape="312.38,639.29,7.63 311.17,638.56,7.63 308.32,633.81,7.63 307.37,627.16,7.63"/>
    </edge>
    <edge id=":D_8" function="internal">
        <lane id=":D_8_0" index="0" speed="7.33" length="11.73" shape="313.77,627.16,7.63 314.32,629.61,7.63 315.97,631.36,7.63 318.72,632.41,7.63 322.57,632.76,7.63"/>
    </edge>
    <edge id=":D_9" function="internal">
        <lane id=":D_9_0" index="0" speed="30.00" length="27.43" shape="313.77,627.16,7.63 314.27,633.71,7.63 315.37,639.38,7.63 316.47,645.74,7.63 316.97,654.36,7.63"/>
        <lane id=":D_9_1" index="1" speed="30.00" length="27.43" shape="310.57,627.16,7.63 311.07,633.71,7.63 312.17,639.38,7.63 313.27,645.74,7.63 313.77,654.36,7.63"/>
    </edge>
    <edge id=":D_11" function="internal">
        <lane id=":D_11_0" index="0" speed="10.36" length="10.84" shape="310.57,627.16,7.63 309.62,633.81,7.63 307.50,637.35,7.63"/>
    </edge>
    <edge id=":D_18" function="internal">
        <lane id=":D_18_0" index="0" speed="10.36" length="13.67" shape="307.50,637.35,7.63 306.77,638.56,7.63 302.02,641.41,7.63 295.37,642.36,7.63"/>
    </edge>
    <edge id=":D_12" function="internal">
        <lane id=":D_12_0" index="0" speed="7.33" length="11.73" shape="295.37,635.96,7.63 297.82,635.41,7.63 299.57,633.76,7.63 300.62,631.01,7.63 300.97,627.16,7.63"/>
    </edge>
    <edge id=":D_13" function="internal">
        <lane id=":D_13_0" index="0" speed="30.00" length="27.43" shape="295.37,635.96,7.63 301.92,635.46,7.63 307.59,634.36,7.63 313.95,633.26,7.63 322.57,632.76,7.63"/>
        <lane id=":D_13_1" index="1" speed="30.00" length="27.43" shape="295.37,639.16,7.63 301.92,638.66,7.63 307.59,637.56,7.63 313.95,636.46,7.63 322.57,635.96,7.63"/>
    </edge>
    <edge id=":D_15" function="internal">
        <lane id=":D_15_0" index="0" speed="10.36" length="10.84" shape="295.37,639.16,7.63 302.02,640.11,7.63 305.56,642.24,7.63"/>
    </edge>
    <edge id=":D_19" function="internal">
        <lane id=":D_19_0" index="0" speed="10.36" length="13.67" shape="305.56,642.24,7.63 306.77,642.96,7.63 309.62,647.71,7.63 310.57,654.36,7.63"/>
    </edge>
    <edge id=":DA_0" function="internal">
        <lane id=":DA_0_0" index="0" speed="3.65" length="4.67" shape="307.37,331.79,7.63 308.17,330.59,7.63 308.97,330.19,7.63 309.77,330.59,7.63 310.57,331.79,7.63"/>
    </edge>
    <edge id=":DB_0" function="internal">
        <lane id=":DB_0_0" index="0" speed="3.65" length="4.67" shape="-0.00,642.36,7.63 -1.20,641.56,7.63 -1.60,640.76,7.63 -1.20,639.96,7.63 -0.00,639.16,7.63"/>
    </edge>
    <edge id=":DC_0" function="internal">
        <lane id=":DC_0_0" index="0" speed="3.65" length="4.67" shape="310.57,949.74,7.63 309.77,950.94,7.63 308.97,951.34,7.63 308.17,950.94,7.63 307.37,949.74,7.63"/>
    </edge>
    <edge id=":TL_0" function="internal">
        <lane id=":TL_0_0" index="0" speed="7.33" length="11.73" shape="613.15,654.36 612.80,650.51 611.75,647.76 610.00,646.11 607.55,645.56"/>
    </edge>
    <edge id=":TL_1" function="internal">
        <lane id=":TL_1_0" index="0" speed="30.00" length="27.20" shape="613.15,654.36 613.15,627.16"/>
        <lane id=":TL_1_1" index="1" speed="30.00" length="27.20" shape="616.35,654.36 616.35,627.16"/>
    </edge>
    <edge id=":TL_3" function="internal">
        <lane id=":TL_3_0" index="0" speed="9.84" length="6.30" shape="616.35,654.36 617.05,648.11"/>
    </edge>
    <edge id=":TL_16" function="internal">
        <lane id=":TL_16_0" index="0" speed="9.84" length="15.70" shape="617.05,648.11 617.10,647.71 619.35,642.96 623.10,640.11 628.35,639.16"/>
    </edge>
    <edge id=":TL_4" function="internal">
        <lane id=":TL_4_0" index="0" speed="6.51" length="9.03" shape="628.35,648.76 625.90,649.11 624.15,650.16 623.10,651.91 622.75,654.36"/>
    </edge>
    <edge id=":TL_5" function="internal">
        <lane id=":TL_5_0" index="0" speed="30.00" length="21.12" shape="628.35,648.76 622.06,648.26 617.75,647.16 613.54,646.06 607.55,645.56"/>
        <lane id=":TL_5_1" index="1" speed="30.00" length="21.12" shape="628.35,645.56 622.06,645.06 617.75,643.96 613.54,642.86 607.55,642.36"/>
    </edge>
    <edge id=":TL_7" function="internal">
        <lane id=":TL_7_0" index="0" speed="9.84" length="5.50" shape="628.35,642.36 623.10,641.41 622.97,641.31"/>
    </edge>
    <edge id=":TL_17" function="internal">
        <lane id=":TL_17_0" index="0" speed="9.84" length="16.49" shape="622.97,641.31 619.35,638.56 617.10,633.81 616.35,627.16"/>
    </edge>
    <edge id=":TL_8" function="internal">
        <lane id=":TL_8_0" index="0" speed="7.33" length="11.73" shape="622.75,627.16 623.10,631.01 624.15,633.76 625.90,635.41 628.35,635.96"/>
    </edge>
    <edge id=":TL_9" function="internal">
        <lane id=":TL_9_0" index="0" speed="30.00" length="27.20" shape="622.75,627.16 622.75,654.36"/>
        <lane id=":TL_9_1" index="1" speed="30.00" length="27.20" shape="619.55,627.16 619.55,654.36"/>
    </edge>
    <edge id=":TL_11" function="internal">
        <lane id=":TL_11_0" index="0" speed="9.84" length="6.30" shape="619.55,627.16 618.84,633.42"/>
    </edge>
    <edge id=":TL_18" function="internal">
        <lane id=":TL_18_0" index="0" speed="9.84" length="15.70" shape="618.84,633.42 618.80,633.81 616.55,638.56 612.80,641.41 607.55,642.36"/>
    </edge>
    <edge id=":TL_12" function="internal">
        <lane id=":TL_12_0" index="0" speed="6.51" length="9.03" shape="607.55,632.76 610.00,632.41 611.75,631.36 612.80,629.61 613.15,627.16"/>
    </edge>
    <edge id=":TL_13" function="internal">
        <lane id=":TL_13_0" index="0" speed="30.00" length="21.12" shape="607.55,632.76 613.83,633.26 618.14,634.36 622.36,635.46 628.35,635.96"/>
        <lane id=":TL_13_1" index="1" speed="30.00" length="21.12" shape="607.55,635.96 613.83,636.46 618.14,637.56 622.36,638.66 628.35,639.16"/>
    </edge>
    <edge id=":TL_15" function="internal">
        <lane id=":TL_15_0" index="0" speed="9.84" length="5.50" shape="607.55,639.16 612.80,640.11 612.93,640.21"/>
    </edge>
    <edge id=":TL_19" function="internal">
        <lane id=":TL_19_0" index="0" speed="9.84" length="16.49" shape="612.93,640.21 616.55,642.96 618.80,647.71 619.55,654.36"/>
    </edge>

    <edge id="A2AA" from="A" to="AA" priority="-1">
        <lane id="A2AA_0" index="0" speed="30.00" length="305.51" shape="607.55,961.47,-12.23 302.04,961.47,-12.23"/>
        <lane id="A2AA_1" index="1" speed="30.00" length="305.51" shape="607.55,958.27,-12.23 302.04,958.27,-12.23"/>
    </edge>
    <edge id="A2AB" from="A" to="AB" priority="-1">
        <lane id="A2AB_0" index="0" speed="30.00" length="305.51" shape="622.75,967.07,-12.23 622.75,1272.57,-12.23"/>
        <lane id="A2AB_1" index="1" speed="30.00" length="305.51" shape="619.55,967.07,-12.23 619.55,1272.57,-12.23"/>
    </edge>
    <edge id="A2AC" from="A" to="AC" priority="-1">
        <lane id="A2AC_0" index="0" speed="30.00" length="305.51" shape="628.35,951.87,-12.23 933.85,951.87,-12.23"/>
        <lane id="A2AC_1" index="1" speed="30.00" length="305.51" shape="628.35,955.07,-12.23 933.85,955.07,-12.23"/>
    </edge>
    <edge id="A2TL" from="A" to="TL" priority="-1">
        <lane id="A2TL_0" index="0" speed="30.00" length="292.16" shape="613.15,946.27,-12.23 613.15,654.36"/>
        <lane id="A2TL_1" index="1" speed="30.00" length="292.16" shape="616.35,946.27,-12.23 616.35,654.36"/>
    </edge>
    <edge id="AA2A" from="AA" to="A" priority="-1">
        <lane id="AA2A_0" index="0" speed="30.00" length="305.51" shape="302.04,951.87,-12.23 607.55,951.87,-12.23"/>
        <lane id="AA2A_1" index="1" speed="30.00" length="305.51" shape="302.04,955.07,-12.23 607.55,955.07,-12.23"/>
    </edge>
    <edge id="AB2A" from="AB" to="A" priority="-1">
        <lane id="AB2A_0" index="0" speed="30.00" length="305.51" shape="613.15,1272.57,-12.23 613.15,967.07,-12.23"/>
        <lane id="AB2A_1" index="1" speed="30.00" length="305.51" shape="616.35,1272.57,-12.23 616.35,967.07,-12.23"/>
    </edge>
    <edge id="AC2A" from="AC" to="A" priority="-1">
        <lane id="AC2A_0" index="0" speed="30.00" length="305.51" shape="933.85,961.47,-12.23 628.35,961.47,-12.23"/>
        <lane id="AC2A_1" index="1" speed="30.00" length="305.51" shape="933.85,958.27,-12.23 628.35,958.27,-12.23"/>
    </edge>
    <edge id="B2BA" from="B" to="BA" priority="-1">
        <lane id="B2BA_0" index="0" speed="30.00" length="307.08" shape="946.62,654.36,7.53 946.62,961.44,7.53"/>
        <lane id="B2BA_1" index="1" speed="30.00" length="307.08" shape="943.42,654.36,7.53 943.42,961.44,7.53"/>
        <lane id="B2BA_2" index="2" speed="30.00" length="307.08" shape="940.22,654.36,7.53 940.22,961.44,7.53"/>
    </edge>
    <edge id="B2BB" from="B" to="BB" priority="-1">
        <lane id="B2BB_0" index="0" speed="30.00" length="307.08" shape="952.22,632.76,7.53 1259.30,632.76,7.53"/>
        <lane id="B2BB_1" index="1" speed="30.00" length="307.08" shape="952.22,635.96,7.53 1259.30,635.96,7.53"/>
        <lane id="B2BB_2" index="2" speed="30.00" length="307.08" shape="952.22,639.16,7.53 1259.30,639.16,7.53"/>
    </edge>
    <edge id="B2BC" from="B" to="BC" priority="-1">
        <lane id="B2BC_0" index="0" speed="30.00" length="307.08" shape="930.62,627.16,7.53 930.62,320.08,7.53"/>
        <lane id="B2BC_1" index="1" speed="30.00" length="307.08" shape="933.82,627.16,7.53 933.82,320.08,7.53"/>
        <lane id="B2BC_2" index="2" speed="30.00" length="307.08" shape="937.02,627.16,7.53 937.02,320.08,7.53"/>
    </edge>
    <edge id="B2TL" from="B" to="TL" priority="-1">
        <lane id="B2TL_0" index="0" speed="30.00" length="296.77" shape="925.02,648.76,7.53 628.35,648.76"/>
        <lane id="B2TL_1" index="1" speed="30.00" length="296.77" shape="925.02,645.56,7.53 628.35,645.56"/>
        <lane id="B2TL_2" index="2" speed="30.00" length="296.77" shape="925.02,642.36,7.53 628.35,642.36"/>
    </edge>
    <edge id="BA2B" from="BA" to="B" priority="-1">
        <lane id="BA2B_0" index="0" speed="30.00" length="307.08" shape="933.82,961.44,7.53 933.82,654.36,7.53"/>
        <lane id="BA2B_1" index="1" speed="30.00" length="307.08" shape="937.02,961.44,7.53 937.02,654.36,7.53"/>
    </edge>
    <edge id="BB2B" from="BB" to="B" priority="-1">
        <lane id="BB2B_0" index="0" speed="30.00" length="307.08" shape="1259.30,645.56,7.53 952.22,645.56,7.53"/>
        <lane id="BB2B_1" index="1" speed="30.00" length="307.08" shape="1259.30,642.36,7.53 952.22,642.36,7.53"/>
    </edge>
    <edge id="BC2B" from="BC" to="B" priority="-1">
        <lane id="BC2B_0" index="0" speed="30.00" length="307.08" shape="943.42,320.08,7.53 943.42,627.16,7.53"/>
        <lane id="BC2B_1" index="1" speed="30.00" length="307.08" shape="940.22,320.08,7.53 940.22,627.16,7.53"/>
    </edge>
    <edge id="C2CA" from="C" to="CA" priority="-1">
        <lane id="C2CA_0" index="0" speed="30.00" length="309.98" shape="628.35,315.58,16.79 938.33,315.58,16.79"/>
        <lane id="C2CA_1" index="1" speed="30.00" length="309.98" shape="628.35,318.78,16.79 938.33,318.78,16.79"/>
    </edge>
    <edge id="C2CB" from="C" to="CB" priority="-1">
        <lane id="C2CB_0" index="0" speed="30.00" length="309.98" shape="613.15,309.98,16.79 613.15,-0.00,16.79"/>
        <lane id="C2CB_1" index="1" speed="30.00" length="309.98" shape="616.35,309.98,16.79 616.35,-0.00,16.79"/>
    </edge>
    <edge id="C2CC" from="C" to="CC" priority="-1">
        <lane id="C2CC_0" index="0" speed="30.00" length="309.98" shape="607.55,325.18,16.79 297.56,325.18,16.79"/>
        <lane id="C2CC_1" index="1" speed="30.00" length="309.98" shape="607.55,321.98,16.79 297.56,321.98,16.79"/>
    </edge>
    <edge id="C2TL" from="C" to="TL" priority="-1">
        <lane id="C2TL_0" index="0" speed="30.00" length="296.86" shape="622.75,330.78,16.79 622.75,627.16"/>
        <lane id="C2TL_1" index="1" speed="30.00" length="296.86" shape="619.55,330.78,16.79 619.55,627.16"/>
    </edge>
    <edge id="CA2C" from="CA" to="C" priority="-1">
        <lane id="CA2C_0" index="0" speed="30.00" length="309.98" shape="938.33,325.18,16.79 628.35,325.18,16.79"/>
        <lane id="CA2C_1" index="1" speed="30.00" length="309.98" shape="938.33,321.98,16.79 628.35,321.98,16.79"/>
    </edge>
    <edge id="CB2C" from="CB" to="C" priority="-1">
        <lane id="CB2C_0" index="0" speed="30.00" length="309.98" shape="622.75,-0.00,16.79 622.75,309.98,16.79"/>
        <lane id="CB2C_1" index="1" speed="30.00" length="309.98" shape="619.55,-0.00,16.79 619.55,309.98,16.79"/>
    </edge>
    <edge id="CC2C" from="CC" to="C" priority="-1">
        <lane id="CC2C_0" index="0" speed="30.00" length="309.98" shape="297.56,315.58,16.79 607.55,315.58,16.79"/>
        <lane id="CC2C_1" index="1" speed="30.00" length="309.98" shape="297.56,318.78,16.79 607.55,318.78,16.79"/>
    </edge>
    <edge id="D2DA" from="D" to="DA" priority="-1">
        <lane id="D2DA_0" index="0" speed="30.00" length="295.37" shape="300.97,627.16,7.63 300.97,331.79,7.63"/>
        <lane id="D2DA_1" index="1" speed="30.00" length="295.37" shape="304.17,627.16,7.63 304.17,331.79,7.63"/>
        <lane id="D2DA_2" index="2" speed="30.00" length="295.37" shape="307.37,627.16,7.63 307.37,331.79,7.63"/>
    </edge>
    <edge id="D2DB" from="D" to="DB" priority="-1">
        <lane id="D2DB_0" index="0" speed="30.00" length="295.37" shape="295.37,648.76,7.63 -0.00,648.76,7.63"/>
        <lane id="D2DB_1" index="1" speed="30.00" length="295.37" shape="295.37,645.56,7.63 -0.00,645.56,7.63"/>