<?xml version="1.0" encoding="UTF-8"?>

<!-- generated on 2022-10-11 17:11:00 by Eclipse SUMO netconvert Version 1.14.1
<configuration xmlns:xsi="http://www.w3.org/2001/XMLSchema-instance" xsi:noNamespaceSchemaLocation="http://sumo.dlr.de/xsd/netconvertConfiguration.xsd">

    <input>
        <node-files value="../data/salt-lake-city/nodes.nod.xml"/>
        <edge-files value="../data/salt-lake-city/edges.edg.xml"/>
        <connection-files value="../data/salt-lake-city/connections.con.xml"/>
    </input>

    <output>
        <output-file value="../data/salt-lake-city/sumo/net/191.net.xml"/>
    </output>

    <tls_building>
        <tls.minor-left.max-speed value="1"/>
    </tls_building>

    <report>
        <verbose value="true"/>
    </report>

</configuration>
-->

<net version="1.9" junctionCornerDetail="5" limitTurnSpeed="5.50" xmlns:xsi="http://www.w3.org/2001/XMLSchema-instance" xsi:noNamespaceSchemaLocation="http://sumo.dlr.de/xsd/net_file.xsd">

    <location netOffset="981.36,490.68" convBoundary="0.00,0.00,1535.38,981.36" origBoundary="-981.36,-490.68,554.02,490.68" projParameter="!"/>

    <edge id=":A_0" function="internal">
        <lane id=":A_0_0" index="0" speed="6.51" length="9.03" shape="979.76,589.64,1.29 979.41,587.19,1.29 978.36,585.44,1.29 976.61,584.39,1.29 974.16,584.04,1.29"/>
    </edge>
    <edge id=":A_1" function="internal">
        <lane id=":A_1_0" index="0" speed="30.00" length="14.40" shape="979.76,589.64,1.29 979.76,575.24,1.19"/>
    </edge>
    <edge id=":A_2" function="internal">
        <lane id=":A_2_0" index="0" speed="6.51" length="9.03" shape="988.56,584.04,1.29 986.11,584.39,1.29 984.36,585.44,1.29 983.31,587.19,1.29 982.96,589.64,1.29"/>
    </edge>
    <edge id=":A_3" function="internal">
        <lane id=":A_3_0" index="0" speed="30.00" length="14.40" shape="988.56,584.04,1.29 974.16,584.04,1.29"/>
    </edge>
    <edge id=":A_4" function="internal">
        <lane id=":A_4_0" index="0" speed="6.51" length="9.03" shape="982.96,575.24,1.16 983.31,577.69,1.20 984.36,579.44,1.22 986.11,580.49,1.25 988.56,580.84,1.29"/>
    </edge>
    <edge id=":A_5" function="internal">
        <lane id=":A_5_0" index="0" speed="30.00" length="14.40" shape="982.96,575.24,1.16 982.96,589.64,1.29"/>
    </edge>
    <edge id=":A_6" function="internal">
        <lane id=":A_6_0" index="0" speed="6.51" length="9.03" shape="974.16,580.84,1.29 976.61,580.49,1.26 978.36,579.44,1.24 979.41,577.69,1.21 979.76,575.24,1.19"/>
    </edge>
    <edge id=":A_7" function="internal">
        <lane id=":A_7_0" index="0" speed="30.00" length="14.40" shape="974.16,580.84,1.29 988.56,580.84,1.29"/>
    </edge>
    <edge id=":AA_0" function="internal">
        <lane id=":AA_0_0" index="0" speed="3.65" length="4.67" shape="889.59,584.04,1.29 888.39,583.24,1.29 887.99,582.44,1.29 888.39,581.64,1.29 889.59,580.84,1.29"/>
    </edge>
    <edge id=":AB_0" function="internal">
        <lane id=":AB_0_0" index="0" speed="3.65" length="4.67" shape="982.96,674.21,1.29 982.16,675.41,1.29 981.36,675.81,1.29 980.56,675.41,1.29 979.76,674.21,1.29"/>
    </edge>
    <edge id=":AC_0" function="internal">
        <lane id=":AC_0_0" index="0" speed="3.65" length="4.67" shape="1073.12,580.84,1.29 1074.32,581.64,1.29 1074.72,582.44,1.29 1074.32,583.24,1.29 1073.12,584.04,1.29"/>
    </edge>
    <edge id=":B_0" function="internal">
        <lane id=":B_0_0" index="0" speed="7.33" length="11.73" shape="1250.37,507.48,-3.12 1249.82,505.03,-3.08 1248.17,503.28,-3.04 1245.42,502.23,-3.00 1241.57,501.88,-2.93"/>
    </edge>
    <edge id=":B_1" function="internal">
        <lane id=":B_1_0" index="0" speed="30.00" length="33.80" shape="1250.37,507.48,-3.12 1249.87,498.27,-3.12 1248.77,491.38,-3.12 1247.67,484.14,-3.12 1247.17,473.88,-3.12"/>
        <lane id=":B_1_1" index="1" speed="30.00" length="33.80" shape="1253.57,507.48,-3.12 1253.07,498.27,-3.12 1251.97,491.38,-3.12 1250.87,484.14,-3.12 1250.37,473.88,-3.12"/>
        <lane id=":B_1_2" index="2" speed="30.00" length="33.80" shape="1256.77,507.48,-3.12 1256.27,498.27,-3.12 1255.17,491.38,-3.12 1254.07,484.14,-3.12 1253.57,473.88,-3.12"/>
    </edge>
    <edge id=":B_4" function="internal">
        <lane id=":B_4_0" index="0" speed="11.36" length="12.06" shape="1256.77,507.48,-3.12 1257.92,499.43,-3.12 1259.94,496.06,-3.12"/>
    </edge>
    <edge id=":B_20" function="internal">
        <lane id=":B_20_0" index="0" speed="11.36" length="17.62" shape="1259.94,496.06,-3.12 1261.37,493.68,-3.12 1267.12,490.23,-3.12 1275.17,489.08,-3.12"/>
    </edge>
    <edge id=":B_5" function="internal">
        <lane id=":B_5_0" index="0" speed="7.33" length="11.73" shape="1275.17,498.68,-3.12 1272.72,499.23,-3.12 1270.97,500.88,-3.12 1269.92,503.63,-3.12 1269.57,507.48,-3.12"/>
    </edge>
    <edge id=":B_6" function="internal">
        <lane id=":B_6_0" index="0" speed="30.00" length="33.80" shape="1275.17,498.68,-3.12 1265.96,499.18,-3.07 1259.07,500.28,-3.03 1251.83,501.38,-2.99 1241.57,501.88,-2.93"/>
        <lane id=":B_6_1" index="1" speed="30.00" length="33.80" shape="1275.17,495.48,-3.12 1265.96,495.98,-3.07 1259.07,497.08,-3.03 1251.83,498.18,-2.99 1241.57,498.68,-2.93"/>
        <lane id=":B_6_2" index="2" speed="30.00" length="33.80" shape="1275.17,492.28,-3.12 1265.96,492.78,-3.07 1259.07,493.88,-3.03 1251.83,494.98,-2.99 1241.57,495.48,-2.93"/>
    </edge>
    <edge id=":B_9" function="internal">
        <lane id=":B_9_0" index="0" speed="11.36" length="12.06" shape="1275.17,492.28,-3.12 1267.12,491.13,-3.12 1263.75,489.11,-3.12"/>
    </edge>
    <edge id=":B_21" function="internal">
        <lane id=":B_21_0" index="0" speed="11.36" length="17.62" shape="1263.75,489.11,-3.12 1261.37,487.68,-3.12 1257.92,481.93,-3.12 1256.77,473.88,-3.12"/>
    </edge>
    <edge id=":B_10" function="internal">
        <lane id=":B_10_0" index="0" speed="7.33" length="11.73" shape="1266.37,473.88,-3.12 1266.92,476.33,-3.12 1268.57,478.08,-3.12 1271.32,479.13,-3.12 1275.17,479.48,-3.12"/>
    </edge>
    <edge id=":B_11" function="internal">
        <lane id=":B_11_0" index="0" speed="30.00" length="33.80" shape="1266.37,473.88,-3.12 1266.87,483.08,-3.12 1267.97,489.98,-3.12 1269.07,497.22,-3.12 1269.57,507.48,-3.12"/>
        <lane id=":B_11_1" index="1" speed="30.00" length="33.80" shape="1263.17,473.88,-3.12 1263.67,483.08,-3.12 1264.77,489.98,-3.12 1265.87,497.22,-3.12 1266.37,507.48,-3.12"/>
        <lane id=":B_11_2" index="2" speed="30.00" length="33.80" shape="1259.97,473.88,-3.12 1260.47,483.08,-3.12 1261.57,489.98,-3.12 1262.67,497.22,-3.12 1263.17,507.48,-3.12"/>
    </edge>
    <edge id=":B_14" function="internal">
        <lane id=":B_14_0" index="0" speed="11.36" length="12.06" shape="1259.97,473.88,-3.12 1258.82,481.93,-3.07 1256.80,485.30,-3.05"/>
    </edge>
    <edge id=":B_22" function="internal">
        <lane id=":B_22_0" index="0" speed="11.36" length="17.62" shape="1256.80,485.30,-3.05 1255.37,487.68,-3.03 1249.62,491.13,-2.99 1241.57,492.28,-2.93"/>
    </edge>
    <edge id=":B_15" function="internal">
        <lane id=":B_15_0" index="0" speed="7.33" length="11.73" shape="1241.57,482.68,-2.93 1244.02,482.13,-2.98 1245.77,480.48,-3.01 1246.82,477.73,-3.06 1247.17,473.88,-3.12"/>
    </edge>
    <edge id=":B_16" function="internal">
        <lane id=":B_16_0" index="0" speed="30.00" length="33.80" shape="1241.57,482.68,-2.93 1250.77,482.18,-2.99 1257.66,481.08,-3.03 1264.91,479.98,-3.07 1275.17,479.48,-3.12"/>
        <lane id=":B_16_1" index="1" speed="30.00" length="33.80" shape="1241.57,485.88,-2.93 1250.77,485.38,-2.99 1257.66,484.28,-3.03 1264.91,483.18,-3.07 1275.17,482.68,-3.12"/>
        <lane id=":B_16_2" index="2" speed="30.00" length="33.80" shape="1241.57,489.08,-2.93 1250.77,488.58,-2.99 1257.66,487.48,-3.03 1264.91,486.38,-3.07 1275.17,485.88,-3.12"/>
    </edge>
    <edge id=":B_19" function="internal">
        <lane id=":B_19_0" index="0" speed="11.36" length="12.06" shape="1241.57,489.08,-2.93 1249.62,490.23,-2.99 1252.98,492.25,-3.01"/>
    </edge>
    <edge id=":B_23" function="internal">
        <lane id=":B_23_0" index="0" speed="11.36" length="17.62" shape="1252.98,492.25,-3.01 1255.37,493.68,-3.03 1258.82,499.43,-3.07 1259.97,507.48,-3.12"/>
    </edge>
    <edge id=":BA_0" function="internal">
        <lane id=":BA_0_0" index="0" speed="3.65" length="4.67" shape="1259.97,767.69,-3.12 1259.17,768.89,-3.12 1258.37,769.29,-3.12 1257.57,768.89,-3.12 1256.77,767.69,-3.12"/>
    </edge>
    <edge id=":BB_0" function="internal">
        <lane id=":BB_0_0" index="0" speed="3.65" length="4.67" shape="1535.38,489.08,-3.12 1536.58,489.88,-3.12 1536.98,490.68,-3.12 1536.58,491.48,-3.12 1535.38,492.28,-3.12"/>
    </edge>
    <edge id=":BC_0" function="internal">
        <lane id=":BC_0_0" index="0" speed="3.65" length="4.67" shape="1256.77,213.67,-3.12 1257.57,212.47,-3.12 1258.37,212.07,-3.12 1259.17,212.47,-3.12 1259.97,213.67,-3.12"/>
    </edge>
    <edge id=":C_0" function="internal">
        <lane id=":C_0_0" index="0" speed="6.51" length="9.03" shape="979.76,293.38,7.23 979.41,290.93,7.23 978.36,289.18,7.23 976.61,288.13,7.23 974.16,287.78,7.23"/>
    </edge>
    <edge id=":C_1" function="internal">
        <lane id=":C_1_0" index="0" speed="35.00" length="14.40" shape="979.76,293.38,7.23 979.76,278.98,7.23"/>
    </edge>
    <edge id=":C_2" function="internal">
        <lane id=":C_2_0" index="0" speed="6.51" length="9.03" shape="988.56,287.78,7.23 986.11,288.13,7.23 984.36,289.18,7.23 983.31,290.93,7.23 982.96,293.38,7.23"/>
    </edge>
    <edge id=":C_3" function="internal">
        <lane id=":C_3_0" index="0" speed="35.00" length="14.40" shape="988.56,287.78,7.23 974.16,287.78,7.23"/>
    </edge>
    <edge id=":C_4" function="internal">
        <lane id=":C_4_0" index="0" speed="6.51" length="9.03" shape="982.96,278.98,7.23 983.31,281.43,7.23 984.36,283.18,7.23 986.11,284.23,7.23 988.56,284.58,7.23"/>
    </edge>
    <edge id=":C_5" function="internal">
        <lane id=":C_5_0" index="0" speed="35.00" length="14.40" shape="982.96,278.98,7.23 982.96,293.38,7.23"/>
    </edge>
    <edge id=":C_6" function="internal">
        <lane id=":C_6_0" index="0" speed="6.51" length="9.03" shape="974.16,284.58,7.23 976.61,284.23,7.23 978.36,283.18,7.23 979.41,281.43,7.23 979.76,278.98,7.23"/>
    </edge>
    <edge id=":C_7" function="internal">
        <lane id=":C_7_0" index="0" speed="35.00" length="14.40" shape="974.16,284.58,7.23 988.56,284.58,7.23"/>
    </edge>
    <edge id=":CA_0" function="internal">
        <lane id=":CA_0_0" index="0" speed="3.65" length="4.67" shape="1185.86,284.58,7.23 1187.06,285.38,7.23 1187.46,286.18,7.23 1187.06,286.98,7.23 1185.86,287.78,7.23"/>
    </edge>
    <edge id=":CB_0" function="internal">
        <lane id=":CB_0_0" index="0" speed="3.65" length="4.67" shape="979.76,81.67,7.23 980.56,80.47,7.23 981.36,80.07,7.23 982.16,80.47,7.23 982.96,81.67,7.23"/>
    </edge>
    <edge id=":CC_0" function="internal">
        <lane id=":CC_0_0" index="0" speed="3.65" length="4.67" shape="776.85,287.78,7.23 775.65,286.98,7.23 775.25,286.18,7.23 775.65,285.38,7.23 776.85,284.58,7.23"/>
    </edge>
    <edge id=":C_intern_0" function="internal">
        <lane id=":C_intern_0_0" index="0" speed="35.00" length="8.41" shape="982.96,436.68,1.92 983.46,439.14,1.83 984.56,440.68,1.77 985.66,442.22,1.71 986.16,444.68,1.63"/>
        <lane id=":C_intern_0_1" index="1" speed="35.00" length="8.41" shape="982.96,436.68,1.92 982.96,444.68,1.63"/>
    </edge>
    <edge id=":D_0" function="internal">
        <lane id=":D_0_0" index="0" speed="6.51" length="9.03" shape="482.68,504.28,-2.09 482.33,501.83,-2.09 481.28,500.08,-2.09 479.53,499.03,-2.09 477.08,498.68,-2.09"/>
    </edge>
    <edge id=":D_1" function="internal">
        <lane id=":D_1_0" index="0" speed="35.00" length="27.20" shape="482.68,504.28,-2.09 482.68,477.08,-2.09"/>
        <lane id=":D_1_1" index="1" speed="35.00" length="27.20" shape="485.88,504.28,-2.09 485.88,477.08,-2.09"/>
        <lane id=":D_1_2" index="2" speed="35.00" length="27.20" shape="489.08,504.28,-2.09 489.08,477.08,-2.09"/>
    </edge>
    <edge id=":D_4" function="internal">
        <lane id=":D_4_0" index="0" speed="10.36" length="5.01" shape="489.08,504.28,-2.09 489.79,499.32,-2.08"/>
    </edge>
    <edge id=":D_20" function="internal">
        <lane id=":D_20_0" index="0" speed="10.36" length="19.50" shape="489.79,499.32,-2.08 490.03,497.63,-2.08 492.88,492.88,-2.06 497.63,490.03,-2.05 504.28,489.08,-2.04"/>
    </edge>
    <edge id=":D_5" function="internal">
        <lane id=":D_5_0" index="0" speed="6.51" length="9.03" shape="504.28,498.68,-2.04 501.83,499.03,-2.05 500.08,500.08,-2.06 499.03,501.83,-2.08 498.68,504.28,-2.09"/>
    </edge>
    <edge id=":D_6" function="internal">
        <lane id=":D_6_0" index="0" speed="35.00" length="27.20" shape="504.28,498.68,-2.04 477.08,498.68,-2.09"/>
        <lane id=":D_6_1" index="1" speed="35.00" length="27.20" shape="504.28,495.48,-2.04 477.08,495.48,-2.09"/>
        <lane id=":D_6_2" index="2" speed="35.00" length="27.20" shape="504.28,492.28,-2.04 477.08,492.28,-2.09"/>
    </edge>
    <edge id=":D_9" function="internal">
        <lane id=":D_9_0" index="0" speed="10.36" length="5.01" shape="504.28,492.28,-2.04 499.32,491.57,-2.05"/>
    </edge>
    <edge id=":D_21" function="internal">
        <lane id=":D_21_0" index="0" speed="10.36" length="19.50" shape="499.32,491.57,-2.05 497.63,491.33,-2.05 492.88,488.48,-2.06 490.03,483.73,-2.08 489.08,477.08,-2.09"/>
    </edge>
    <edge id=":D_10" function="internal">
        <lane id=":D_10_0" index="0" speed="6.51" length="9.03" shape="498.68,477.08,-2.09 499.03,479.53,-2.08 500.08,481.28,-2.06 501.83,482.33,-2.05 504.28,482.68,-2.04"/>
    </edge>
    <edge id=":D_11" function="internal">
        <lane id=":D_11_0" index="0" speed="35.00" length="27.20" shape="498.68,477.08,-2.09 498.68,504.28,-2.09"/>
        <lane id=":D_11_1" index="1" speed="35.00" length="27.20" shape="495.48,477.08,-2.09 495.48,504.28,-2.09"/>
        <lane id=":D_11_2" index="2" speed="35.00" length="27.20" shape="492.28,477.08,-2.09 492.28,504.28,-2.09"/>
    </edge>
    <edge id=":D_14" function="internal">
        <lane id=":D_14_0" index="0" speed="10.36" length="5.01" shape="492.28,477.08,-2.09 491.57,482.04,-2.09"/>
    </edge>
    <edge id=":D_22" function="internal">
        <lane id=":D_22_0" index="0" speed="10.36" length="19.50" shape="491.57,482.04,-2.09 491.33,483.73,-2.09 488.48,488.48,-2.09 483.73,491.33,-2.09 477.08,492.28,-2.09"/>
    </edge>
    <edge id=":D_15" function="internal">
        <lane id=":D_15_0" index="0" speed="6.51" length="9.03" shape="477.08,482.68,-2.09 479.53,482.33,-2.09 481.28,481.28,-2.09 482.33,479.53,-2.09 482.68,477.08,-2.09"/>
    </edge>
    <edge id=":D_16" function="internal">
        <lane id=":D_16_0" index="0" speed="35.00" length="27.20" shape="477.08,482.68,-2.09 504.28,482.68,-2.04"/>
        <lane id=":D_16_1" index="1" speed="35.00" length="27.20" shape="477.08,485.88,-2.09 504.28,485.88,-2.04"/>
        <lane id=":D_16_2" index="2" speed="35.00" length="27.20" shape="477.08,489.08,-2.09 504.28,489.08,-2.04"/>
    </edge>
    <edge id=":D_19" function="internal">
        <lane id=":D_19_0" index="0" speed="10.36" length="5.01" shape="477.08,489.08,-2.09 482.04,489.79,-2.09"/>
    </edge>
    <edge id=":D_23" function="internal">
        <lane id=":D_23_0" index="0" speed="10.36" length="19.50" shape="482.04,489.79,-2.09 483.73,490.03,-2.09 488.48,492.88,-2.09 491.33,497.63,-2.09 492.28,504.28,-2.09"/>
    </edge>
    <edge id=":DA_0" function="internal">
        <lane id=":DA_0_0" index="0" speed="3.65" length="4.67" shape="489.08,-0.00,-2.09 489.88,-1.20,-2.09 490.68,-1.60,-2.09 491.48,-1.20,-2.09 492.28,-0.00,-2.09"/>
    </edge>
    <edge id=":DB_0" function="internal">
        <lane id=":DB_0_0" index="0" speed="3.65" length="4.67" shape="-0.00,492.28,-2.09 -1.20,491.48,-2.09 -1.60,490.68,-2.09 -1.20,489.88,-2.09 -0.00,489.08,-2.09"/>
    </edge>
    <edge id=":DC_0" function="internal">
        <lane id=":DC_0_0" index="0" speed="3.65" length="4.67" shape="492.28,981.36,-2.09 491.48,982.56,-2.09 490.68,982.96,-2.09 489.88,982.56,-2.09 489.08,981.36,-2.09"/>
    </edge>
    <edge id=":TL_0" function="internal">
        <lane id=":TL_0_0" index="0" speed="7.33" length="11.73" shape="979.76,507.48 979.41,503.63,-0.01 978.36,500.88,-0.02 976.61,499.23,-0.02 974.16,498.68,-0.03"/>
    </edge>
    <edge id=":TL_1" function="internal">
        <lane id=":TL_1_0" index="0" speed="32.50" length="30.40" shape="979.76,507.48 979.76,477.08"/>
    </edge>
    <edge id=":TL_2" function="internal">
        <lane id=":TL_2_0" index="0" speed="7.33" length="11.73" shape="991.76,501.88,-0.12 987.91,502.23,-0.08 985.16,503.28,-0.05 983.51,505.03,-0.03 982.96,507.48"/>
    </edge>
    <edge id=":TL_3" function="internal">
        <lane id=":TL_3_0" index="0" speed="32.50" length="17.89" shape="991.76,501.88,-0.12 986.49,501.38,-0.09 982.96,500.28,-0.07 979.42,499.18,-0.06 974.16,498.68,-0.03"/>
        <lane id=":TL_3_1" index="1" speed="32.50" length="17.89" shape="991.76,498.68,-0.12 986.49,498.18,-0.09 982.96,497.08,-0.07 979.42,495.98,-0.06 974.16,495.48,-0.03"/>
        <lane id=":TL_3_2" index="2" speed="32.50" length="17.89" shape="991.76,495.48,-0.12 986.49,494.98,-0.09 982.96,493.88,-0.07 979.42,492.78,-0.06 974.16,492.28,-0.03"/>
        <lane id=":TL_3_3" index="3" speed="32.50" length="17.89" shape="991.76,492.28,-0.12 974.16,492.28,-0.03"/>
    </edge>
    <edge id=":TL_7" function="internal">
        <lane id=":TL_7_0" index="0" speed="9.84" length="4.01" shape="991.76,492.28,-0.12 987.81,491.56,-0.10"/>
    </edge>
    <edge id=":TL_16" function="internal">
        <lane id=":TL_16_0" index="0" speed="9.84" length="17.98" shape="987.81,491.56,-0.10 986.51,491.33,-0.09 982.76,488.48,-0.06 980.51,483.73,-0.04 979.76,477.08"/>
    </edge>
    <edge id=":TL_8" function="internal">
        <lane id=":TL_8_0" index="0" speed="6.51" length="9.03" shape="986.16,477.08 986.51,479.53,-0.03 987.56,481.28,-0.06 989.31,482.33,-0.09 991.76,482.68,-0.12"/>
    </edge>
    <edge id=":TL_9" function="internal">
        <lane id=":TL_9_0" index="0" speed="32.50" length="30.58" shape="986.16,477.08 985.66,485.34 984.56,494.15 983.46,502.03 982.96,507.48"/>
    </edge>
    <edge id=":TL_10" function="internal">
        <lane id=":TL_10_0" index="0" speed="9.32" length="7.05" shape="982.96,477.08 982.41,483.73,-0.01 982.28,484.09,-0.01"/>
    </edge>
    <edge id=":TL_17" function="internal">
        <lane id=":TL_17_0" index="0" speed="9.32" length="12.57" shape="982.28,484.09,-0.01 980.76,488.48,-0.02 978.01,491.33,-0.02 974.16,492.28,-0.03"/>
    </edge>
    <edge id=":TL_11" function="internal">
        <lane id=":TL_11_0" index="0" speed="6.51" length="9.03" shape="974.16,482.68,-0.03 976.61,482.33,-0.02 978.36,481.28,-0.02 979.41,479.53,-0.01 979.76,477.08"/>
    </edge>
    <edge id=":TL_12" function="internal">
        <lane id=":TL_12_0" index="0" speed="32.50" length="17.60" shape="974.16,482.68,-0.03 991.76,482.68,-0.12"/>
        <lane id=":TL_12_1" index="1" speed="32.50" length="17.60" shape="974.16,485.88,-0.03 991.76,485.88,-0.12"/>
        <lane id=":TL_12_2" index="2" speed="32.50" length="17.60" shape="974.16,489.08,-0.03 991.76,489.08,-0.12"/>
    </edge>
    <edge id=":TL_15" function="internal">
        <lane id=":TL_15_0" index="0" speed="9.94" length="2.58" shape="974.16,489.08,-0.03 976.63,489.82,-0.03"/>
    </edge>
    <edge id=":TL_18" function="internal">
        <lane id=":TL_18_0" index="0" speed="9.94" length="19.90" shape="976.63,489.82,-0.03 978.01,490.23,-0.03 980.76,493.68,-0.02 982.41,499.43,-0.01 982.96,507.48"/>
    </edge>

    <edge id="A2AA" from="A" to="AA" priority="-1">
        <lane id="A2AA_0" index="0" speed="30.00" length="84.56" shape="974.16,584.04,1.29 889.59,584.04,1.29"/>
    </edge>
    <edge id="A2AB" from="A" to="AB" priority="-1">
        <lane id="A2AB_0" index="0" speed="30.00" length="84.56" shape="982.96,589.64,1.29 982.96,674.21,1.29"/>
    </edge>
    <edge id="A2AC" from="A" to="AC" priority="-1">
        <lane id="A2AC_0" index="0" speed="30.00" length="84.56" shape="988.56,580.84,1.29 1073.12,580.84,1.29"/>
    </edge>
    <edge id="A2TL" from="A" to="TL" priority="-1">
        <lane id="A2TL_0" index="0" speed="30.00" length="67.77" shape="979.76,575.24,1.19 979.76,507.48"/>
    </edge>
    <edge id="AA2A" from="AA" to="A" priority="-1">
        <lane id="AA2A_0" index="0" speed="30.00" length="84.56" shape="889.59,580.84,1.29 974.16,580.84,1.29"/>
    </edge>
    <edge id="AB2A" from="AB" to="A" priority="-1">
        <lane id="AB2A_0" index="0" speed="30.00" length="84.56" shape="979.76,674.21,1.29 979.76,589.64,1.29"/>
    </edge>
    <edge id="AC2A" from="AC" to="A" priority="-1">
        <lane id="AC2A_0" index="0" speed="30.00" length="84.56" shape="1073.12,584.04,1.29 988.56,584.04,1.29"/>
    </edge>
    <edge id="B2BA" from="B" to="BA" priority="-1">
        <lane id="B2BA_0" index="0" speed="30.00" length="260.21" shape="1269.57,507.48,-3.12 1269.57,767.69,-3.12"/>
        <lane id="B2BA_1" index="1" speed="30.00" length="260.21" shape="1266.37,507.48,-3.12 1266.37,767.69,-3.12"/>
        <lane id="B2BA_2" index="2" speed="30.00" length="260.21" shape="1263.17,507.48,-3.12 1263.17,767.69,-3.12"/>
        <lane id="B2BA_3" index="3" speed="30.00" length="260.21" shape="1259.97,507.48,-3.12 1259.97,767.69,-3.12"/>
    </edge>
    <edge id="B2BB" from="B" to="BB" priority="-1">
        <lane id="B2BB_0" index="0" speed="30.00" length="260.21" shape="1275.17,479.48,-3.12 1535.38,479.48,-3.12"/>
        <lane id="B2BB_1" index="1" speed="30.00" length="260.21" shape="1275.17,482.68,-3.12 1535.38,482.68,-3.12"/>
        <lane id="B2BB_2" index="2" speed="30.00" length="260.21" shape="1275.17,485.88,-3.12 1535.38,485.88,-3.12"/>
        <lane id="B2BB_3" index="3" speed="30.00" length="260.21" shape="1275.17,489.08,-3.12 1535.38,489.08,-3.12"/>
    </edge>
    <edge id="B2BC" from="B" to="BC" priority="-1">
        <lane id="B2BC_0" index="0" speed="30.00" length="260.21" shape="1247.17,473.88,-3.12 1247.17,213.67,-3.12"/>
        <lane id="B2BC_1" index="1" speed="30.00" length="260.21" shape="1250.37,473.88,-3.12 1250.37,213.67,-3.12"/>
        <lane id="B2BC_2" index="2" speed="30.00" length="260.21" shape="1253.57,473.88,-3.12 1253.57,213.67,-3.12"/>
        <lane id="B2BC_3" index="3" speed="30.00" length="260.21" shape="1256.77,473.88,-3.12 1256.77,213.67,-3.12"/>
    </edge>
    <edge id="B2TL" from="B" to="TL" priority="-1">
        <lane id="B2TL_0" index="0" speed="30.00" length="249.83" shape="1241.57,501.88,-2.93 991.76,501.88,-0.12"/>
        <lane id="B2TL_1" index="1" speed="30.00" length="249.83" shape="1241.57,498.68,-2.93 991.76,498.68,-0.12"/>
        <lane id="B2TL_2" index="2" speed="30.00" length="249.83" shape="1241.57,495.48,-2.93 991.76,495.48,-0.12"/>
        <lane id="B2TL_3" index="3" speed="30.00" length="249.83" shape="1241.57,492.28,-2.93 991.76,492.28,-0.12"/>
    </edge>
    <edge id="BA2B" from="BA" to="B" priority="-1">
        <lane id="BA2B_0" index="0" speed="30.00" length="260.21" shape="1250.37,767.69,-3.12 1250.37,507.48,-3.12"/>
        <lane id="BA2B_1" index="1" speed="30.00" length="260.21" shape="1253.57,767.69,-3.12 1253.57,507.48,-3.12"/>
        <lane id="BA2B_2" index="2" speed="30.00" length="260.21" shape="1256.77,767.69,-3.12 1256.77,507.48,-3.12"/>
    </edge>
    <edge id="BB2B" from="BB" to="B" priority="-1">
        <lane id="BB2B_0" index="0" speed="30.00" length="260.21" shape="1535.38,498.68,-3.12 1275.17,498.68,-3.12"/>
        <lane id="BB2B_1" index="1" speed="30.00" length="260.21" shape="1535.38,495.48,-3.12 1275.17,495.48,-3.12"/>
        <lane id="BB2B_2" index="2" speed="30.00" length="260.21" shape="1535.38,492.28,-3.12 1275.17,492.28,-3.12"/>
    </edge>
    <edge id="BC2B" from="BC" to="B" priority="-1">
        <lane id="BC2B_0" index="0" speed="30.00" length="260.21" shape="1266.37,213.67,-3.12 1266.37,473.88,-3.12"/>
        <lane id="BC2B_1" index="1" speed="30.00" length="260.21" shape="1263.17,213.67,-3.12 1263.17,473.88,-3.12"/>
        <lane id="BC2B_2" index="2" speed="30.00" length="260.21" shape="1259.97,213.67,-3.12 1259.97,473.88,-3.12"/>
    </edge>
    <edge id="C2CA" from="C" to="CA" priority="-1">
        <lane id="C2CA_0" index="0" speed="35.00" length="197.30" shape="988.56,284.58,7.23 1185.86,284.58,7.23"/>
    </edge>
    <edge id="C2CB" from="C" to="CB" priority="-1">
        <lane id="C2CB_0" index="0" speed="35.00" length="197.30" shape="979.76,278.98,7.23 979.76,81.67,7.23"/>
    </edge>
    <edge id="C2CC" from="C" to="CC" priority="-1">
        <lane id="C2CC_0" index="0" speed="35.00" length="197.30" shape="974.16,287.78,7.23 776.85,287.78,7.23"/>
    </edge>
    <edge id="C2TL" from="C" to="C_intern" priority="-1">
        <lane id="C2TL_0" index="0" speed="35.00" length="143.40" shape="982.96,293.38,7.23 982.96,436.68,1.92"/>
    </edge>
    <edge id="C2TL_intern" from="C_intern" to="TL" priority="-1">
        <lane id="C2TL_intern_0" index="0" speed="35.00" length="32.44" shape="986.16,444.68,1.63 986.16,477.08"/>
        <lane id="C2TL_intern_1" index="1" speed="35.00" length="32.44" shape="982.96,444.68,1.63 982.96,477.08"/>
    </edge>
    <edge id="CA2C" from="CA" to="C" priority="-1">
        <lane id="CA2C_0" index="0" speed="35.00" length="197.30" shape="1185.86,287.78,7.23 988.56,287.78,7.23"/>
    </edge>
    <edge id="CB2C" from="CB" to="C" priority="-1">
        <lane id="CB2C_0" index="0" speed="35.00" length="197.30" shape="982.96,81.67,7.23 982.96,278.98,7.23"/>
    </edge>
    <edge id="CC2C" from="CC" to="C" priority="-1">
        <lane id="CC2C_0" index="0" speed="35.00" length="197.30" shape="776.85,284.58,7.23 974.16,284.58,7.23"/>
    </edge>
    <edge id="D2DA" from="D" to="DA" priority="-1">
        <lane id="D2DA_0" index="0" speed="35.00" length="477.08" shape="482.68,477.08,-2.09 482.68,-0.00,-2.09"/>
        <lane id="D2DA_1" index="1" speed="35.00" length="477.08" shape="485.88,477.08,-2.09 485.88,-0.00,-2.09"/>
        <lane id="D2DA_2" index="2" speed="35.00" length="477.08" shape="489.08,477.08,-2.09 489.08,-0.00,-2.09"/>
    </edge>
    <edge id="D2DB" from="D" to="DB" priority="-1">
        <lane id="D2DB_0" index="0" speed="35.00" length="477.08" shape="477.08,498.68,-2.09 -0.00,498.68,-2.09"/>
        <lane id="D2DB_1" index="1" speed="35.00" length="477.08" shape="477.08,495.48,-2.09 -0.00,495.48,-2.09"/>
        <lane id="D2DB_2" index="2" speed="35.00" length="477.08" shape="477.08,492.28,-2.09 -0.00,492.28,-2.09"/>
    </edge>
    <edge id="D2DC" from="D" to="DC" priority="-1">
        <lane id="D2DC_0" index="0" speed="35.00" length="477.08" shape="498.68,504.28,-2.09 498.68,981.36,-2.09"/>
        <lane id="D2DC_1" index="1" speed="35.00" length="477.08" shape="495.48,504.28,-2.09 495.48,981.36,-2.09"/>
        <lane id="D2DC_2" index="2" speed="35.00" length="477.08" shape="492.28,504.28,-2.09 492.28,981.36,-2.09"/>
    </edge>
    <edge id="D2TL" from="D" to="TL" priority="-1">
        <lane id="D2TL_0" index="0" speed="35.00" length="469.88" shape="504.28,482.68,-2.04 974.16,482.68,-0.03"/>
        <lane id="D2TL_1" index="1" speed="35.00" length="469.88" shape="504.28,485.88,-2.04 974.16,485.88,-0.03"/>
        <lane id="D2TL_2" index="2" speed="35.00" length="469.88" shape="504.28,489.08,-2.04 974.16,489.08,-0.03"/>
    </edge>
    <edge id="DA2D" from="DA" to="D" priority="-1">
        <lane id="DA2D_0" index="0" speed="35.00" length="477.08" shape="498.68,-0.00,-2.09 498.68,477.08,-2.09"/>
        <lane id="DA2D_1" index="1" speed="35.00" length="477.08" shape="495.48,-0.00,-2.09 495.48,477.08,-2.09"/>
        <lane id="DA2D_2" index="2" speed="35.00" length="477.08" shape="492.28,-0.00,-2.09 492.28,477.08,-2.09"/>
    </edge>
    <edge id="DB2D" from="DB" to="D" priority="-1">
        <lane id="DB2D_0" index="0" speed="35.00" length="477.08" shape="-0.00,482.68,-2.09 477.08,482.68,-2.09"/>
        <lane id="DB2D_1" index="1" speed="35.00" length="477.08" shape="-0.00,485.88,-2.09 477.08,485.88,-2.09"/>
        <lane id="DB2D_2" index="2" speed="35.00" length="477.08" shape="-0.00,489.08,-2.09 477.08,489.08,-2.09"/>
    </edge>
    <edge id="DC2D" from="DC" to="D" priority="-1">
        <lane id="DC2D_0" index="0" speed="35.00" length="477.08" shape="482.68,981.36,-2.09 482.68,504.28,-2.09"/>
        <lane id="DC2D_1" index="1" speed="35.00" length="477.08" shape="485.88,981.36,-2.09 485.88,504.28,-2.09"/>
        <lane id="DC2D_2" index="2" speed="35.00" length="477.08" shape="489.08,981.36,-2.09 489.08,504.28,-2.09"/>
    </edge>
    <edge id="TL2A" from="TL" to="A" priority="-1">
        <lane id="TL2A_0" index="0" speed="30.00" length="67.77" shape="982.96,507.48 982.96,575.24,1.16"/>
    </edge>
    <edge id="TL2B" from="TL" to="B" priority="-1">
        <lane id="TL2B_0" index="0" speed="30.00" length="249.83" shape="991.76,482.68,-0.12 1241.57,482.68,-2.93"/>
        <lane id="TL2B_1" index="1" speed="30.00" length="249.83" shape="991.76,485.88,-0.12 1241.57,485.88,-2.93"/>
        <lane id="TL2B_2" index="2" speed="30.00" length="249.83" shape="991.76,489.08,-0.12 1241.57,489.08,-2.93"/>
    </edge>
    <edge id="TL2C" from="TL" to="C" priority="-1">
        <lane id="TL2C_0" index="0" speed="35.00" length="183.84" shape="979.76,477.08 979.76,293.38,7.23"/>
    </edge>
    <edge id="TL2D" from="TL" to="D" priority="-1">
        <lane id="TL2D_0" index="0" speed="35.00" length="469.88" shape="974.16,498.68,-0.03 504.28,498.68,-2.04"/>
        <lane id="TL2D_1" index="1" speed="35.00" length="469.88" shape="974.16,495.48,-0.03 504.28,495.48,-2.04"/>