<?xml version="1.0" encoding="UTF-8"?>

<!-- generated on 2022-10-11 17:11:00 by Eclipse SUMO netconvert Version 1.14.1
<configuration xmlns:xsi="http://www.w3.org/2001/XMLSchema-instance" xsi:noNamespaceSchemaLocation="http://sumo.dlr.de/xsd/netconvertConfiguration.xsd">

    <input>
        <node-files value="../data/salt-lake-city/nodes.nod.xml"/>
        <edge-files value="../data/salt-lake-city/edges.edg.xml"/>
        <connection-files value="../data/salt-lake-city/connections.con.xml"/>
    </input>

    <output>
        <output-file value="../data/salt-lake-city/sumo/net/192.net.xml"/>
    </output>

    <tls_building>
        <tls.minor-left.max-speed value="1"/>
    </tls_building>

    <report>
        <verbose value="true"/>
    </report>

</configuration>
-->

<net version="1.9" junctionCornerDetail="5" limitTurnSpeed="5.50" xmlns:xsi="http://www.w3.org/2001/XMLSchema-instance" xsi:noNamespaceSchemaLocation="http://sumo.dlr.de/xsd/net_file.xsd">

    <location netOffset="529.55,816.72" convBoundary="0.00,0.00,1565.11,1429.41" origBoundary="-529.55,-816.72,1035.55,612.69" projParameter="!"/>

    <edge id=":A_0" function="internal">
        <lane id=":A_0_0" index="0" speed="8.83" length="17.50" shape="521.55,1146.26,1.68 520.60,1143.81,1.68 517.75,1142.06,1.68 513.00,1141.01,1.68 506.35,1140.66,1.68"/>
    </edge>
    <edge id=":A_1" function="internal">
        <lane id=":A_1_0" index="0" speed="35.00" length="47.60" shape="521.55,1146.26,1.68 520.05,1136.02,1.65 516.75,1126.32,1.63 513.45,1115.00,1.59 511.95,1099.86,1.55"/>
        <lane id=":A_1_1" index="1" speed="35.00" length="47.60" shape="524.75,1146.26,1.68 523.25,1136.02,1.65 519.95,1126.32,1.63 516.65,1115.00,1.59 515.15,1099.86,1.55"/>
        <lane id=":A_1_2" index="2" speed="35.00" length="47.60" shape="527.95,1146.26,1.68 526.45,1136.02,1.65 523.15,1126.32,1.63 519.85,1115.00,1.59 518.35,1099.86,1.55"/>
    </edge>
    <edge id=":A_4" function="internal">
        <lane id=":A_4_0" index="0" speed="13.13" length="21.35" shape="527.95,1146.26,1.68 529.50,1135.41,1.68 534.15,1127.66,1.68 535.32,1126.96,1.68"/>
    </edge>
    <edge id=":A_20" function="internal">
        <lane id=":A_20_0" index="0" speed="13.13" length="18.64" shape="535.32,1126.96,1.68 541.90,1123.01,1.68 552.75,1121.46,1.68"/>
    </edge>
    <edge id=":A_5" function="internal">
        <lane id=":A_5_0" index="0" speed="8.83" length="17.50" shape="552.75,1131.06,1.68 550.30,1132.01,1.68 548.55,1134.86,1.68 547.50,1139.61,1.68 547.15,1146.26,1.68"/>
    </edge>
    <edge id=":A_6" function="internal">
        <lane id=":A_6_0" index="0" speed="35.00" length="47.60" shape="552.75,1131.06,1.68 542.51,1132.56,1.68 532.81,1135.86,1.68 521.49,1139.16,1.68 506.35,1140.66,1.68"/>
        <lane id=":A_6_1" index="1" speed="35.00" length="47.60" shape="552.75,1127.86,1.68 542.51,1129.36,1.68 532.81,1132.66,1.68 521.49,1135.96,1.68 506.35,1137.46,1.68"/>
        <lane id=":A_6_2" index="2" speed="35.00" length="47.60" shape="552.75,1124.66,1.68 542.51,1126.16,1.68 532.81,1129.46,1.68 521.49,1132.76,1.68 506.35,1134.26,1.68"/>
    </edge>
    <edge id=":A_9" function="internal">
        <lane id=":A_9_0" index="0" speed="13.13" length="21.35" shape="552.75,1124.66,1.68 541.90,1123.11,1.65 534.15,1118.46,1.62 533.46,1117.30,1.61"/>
    </edge>
    <edge id=":A_21" function="internal">
        <lane id=":A_21_0" index="0" speed="13.13" length="18.64" shape="533.46,1117.30,1.61 529.50,1110.71,1.59 527.95,1099.86,1.55"/>
    </edge>
    <edge id=":A_10" function="internal">
        <lane id=":A_10_0" index="0" speed="8.83" length="17.50" shape="537.55,1099.86,1.55 538.50,1102.31,1.57 541.35,1104.06,1.60 546.10,1105.11,1.63 552.75,1105.46,1.68"/>
    </edge>
    <edge id=":A_11" function="internal">
        <lane id=":A_11_0" index="0" speed="35.00" length="47.60" shape="537.55,1099.86,1.55 539.05,1110.11,1.58 542.35,1119.80,1.61 545.65,1131.13,1.64 547.15,1146.26,1.68"/>
        <lane id=":A_11_1" index="1" speed="35.00" length="47.60" shape="534.35,1099.86,1.55 535.85,1110.11,1.58 539.15,1119.80,1.61 542.45,1131.13,1.64 543.95,1146.26,1.68"/>
        <lane id=":A_11_2" index="2" speed="35.00" length="47.60" shape="531.15,1099.86,1.55 532.65,1110.11,1.58 535.95,1119.80,1.61 539.25,1131.13,1.64 540.75,1146.26,1.68"/>
    </edge>
    <edge id=":A_14" function="internal">
        <lane id=":A_14_0" index="0" speed="13.13" length="21.35" shape="531.15,1099.86,1.55 529.60,1110.71,1.59 524.95,1118.46,1.62 523.79,1119.16,1.62"/>
    </edge>
    <edge id=":A_22" function="internal">
        <lane id=":A_22_0" index="0" speed="13.13" length="18.64" shape="523.79,1119.16,1.62 517.20,1123.11,1.65 506.35,1124.66,1.68"/>
    </edge>
    <edge id=":A_15" function="internal">
        <lane id=":A_15_0" index="0" speed="8.83" length="17.50" shape="506.35,1115.06,1.68 508.80,1114.11,1.66 510.55,1111.26,1.64 511.60,1106.51,1.60 511.95,1099.86,1.55"/>
    </edge>
    <edge id=":A_16" function="internal">
        <lane id=":A_16_0" index="0" speed="35.00" length="47.60" shape="506.35,1115.06,1.68 516.60,1113.56,1.68 526.29,1110.26,1.68 537.62,1106.96,1.68 552.75,1105.46,1.68"/>
        <lane id=":A_16_1" index="1" speed="35.00" length="47.60" shape="506.35,1118.26,1.68 516.60,1116.76,1.68 526.29,1113.46,1.68 537.62,1110.16,1.68 552.75,1108.66,1.68"/>
        <lane id=":A_16_2" index="2" speed="35.00" length="47.60" shape="506.35,1121.46,1.68 516.60,1119.96,1.68 526.29,1116.66,1.68 537.62,1113.36,1.68 552.75,1111.86,1.68"/>
    </edge>
    <edge id=":A_19" function="internal">
        <lane id=":A_19_0" index="0" speed="13.13" length="21.35" shape="506.35,1121.46,1.68 517.20,1123.01,1.68 524.95,1127.66,1.68 525.65,1128.82,1.68"/>
    </edge>
    <edge id=":A_23" function="internal">
        <lane id=":A_23_0" index="0" speed="13.13" length="18.64" shape="525.65,1128.82,1.68 529.60,1135.41,1.68 531.15,1146.26,1.68"/>
    </edge>
    <edge id=":AA_0" function="internal">
        <lane id=":AA_0_0" index="0" speed="3.65" length="4.67" shape="223.21,1124.66,1.68 222.01,1123.86,1.68 221.61,1123.06,1.68 222.01,1122.26,1.68 223.21,1121.46,1.68"/>
    </edge>
    <edge id=":AB_0" function="internal">
        <lane id=":AB_0_0" index="0" speed="3.65" length="4.67" shape="531.15,1429.41,1.68 530.35,1430.61,1.68 529.55,1431.01,1.68 528.75,1430.61,1.68 527.95,1429.41,1.68"/>
    </edge>
    <edge id=":AC_0" function="internal">
        <lane id=":AC_0_0" index="0" speed="3.65" length="4.67" shape="835.90,1121.46,1.68 837.10,1122.26,1.68 837.50,1123.06,1.68 837.10,1123.86,1.68 835.90,1124.66,1.68"/>
    </edge>
    <edge id=":B_0" function="internal">
        <lane id=":B_0_0" index="0" speed="6.51" length="9.03" shape="1049.54,524.81,31.33 1048.02,522.87,31.33 1046.23,521.87,31.33 1044.19,521.84,31.33 1041.89,522.76,31.33"/>
    </edge>
    <edge id=":B_1" function="internal">
        <lane id=":B_1_0" index="0" speed="25.00" length="14.40" shape="1049.54,524.81,31.33 1042.34,512.34,31.33"/>
    </edge>
    <edge id=":B_2" function="internal">
        <lane id=":B_2_0" index="0" speed="6.51" length="9.03" shape="1054.37,515.56,31.33 1052.42,517.09,31.33 1051.43,518.87,31.33 1051.39,520.92,31.33 1052.32,523.21,31.33"/>
    </edge>
    <edge id=":B_3" function="internal">
        <lane id=":B_3_0" index="0" speed="25.00" length="14.40" shape="1054.37,515.56,31.33 1041.89,522.76,31.33"/>
    </edge>
    <edge id=":B_4" function="internal">
        <lane id=":B_4_0" index="0" speed="6.51" length="9.03" shape="1045.12,510.74,31.33 1046.64,512.69,31.33 1048.43,513.68,31.33 1050.47,513.71,31.33 1052.77,512.79,31.33"/>
    </edge>
    <edge id=":B_5" function="internal">
        <lane id=":B_5_0" index="0" speed="25.00" length="14.40" shape="1045.12,510.74,31.33 1052.32,523.21,31.33"/>
    </edge>
    <edge id=":B_6" function="internal">
        <lane id=":B_6_0" index="0" speed="6.51" length="9.03" shape="1040.29,519.99,31.33 1042.24,518.46,31.33 1043.23,516.68,31.33 1043.27,514.64,31.33 1042.34,512.34,31.33"/>
    </edge>
    <edge id=":B_7" function="internal">
        <lane id=":B_7_0" index="0" speed="25.00" length="14.40" shape="1040.29,519.99,31.33 1052.77,512.79,31.33"/>
    </edge>
    <edge id=":BA_0" function="internal">
        <lane id=":BA_0_0" index="0" speed="3.65" length="4.67" shape="1347.65,1034.75,31.33 1347.56,1036.19,31.33 1347.07,1036.94,31.33 1346.18,1036.99,31.33 1344.88,1036.35,31.33"/>
    </edge>
    <edge id=":BB_0" function="internal">
        <lane id=":BB_0_0" index="0" speed="3.65" length="4.67" shape="1564.31,217.45,31.33 1565.75,217.55,31.33 1566.49,218.04,31.33 1566.55,218.93,31.33 1565.91,220.22,31.33"/>
    </edge>
    <edge id=":BC_0" function="internal">
        <lane id=":BC_0_0" index="0" speed="3.65" length="4.67" shape="747.01,0.80,31.33 747.10,-0.64,31.33 747.59,-1.39,31.33 748.48,-1.44,31.33 749.78,-0.80,31.33"/>
    </edge>
    <edge id=":C_0" function="internal">
        <lane id=":C_0_0" index="0" speed="6.51" length="9.03" shape="272.55,677.57 270.26,676.65 268.22,676.69 266.43,677.68 264.90,679.62"/>
    </edge>
    <edge id=":C_1" function="internal">
        <lane id=":C_1_0" index="0" speed="35.00" length="27.20" shape="272.55,677.57 249.00,663.97"/>
        <lane id=":C_1_1" index="1" speed="35.00" length="27.20" shape="274.15,674.80 250.60,661.20"/>
        <lane id=":C_1_2" index="2" speed="35.00" length="27.20" shape="275.75,672.03 252.20,658.43"/>
    </edge>
    <edge id=":C_4" function="internal">
        <lane id=":C_4_0" index="0" speed="10.36" length="5.01" shape="275.75,672.03 271.81,668.94"/>
    </edge>
    <edge id=":C_20" function="internal">
        <lane id=":C_20_0" index="0" speed="10.36" length="19.50" shape="271.81,668.94 270.47,667.88 267.78,663.04 267.69,657.50 270.19,651.27"/>
    </edge>
    <edge id=":C_5" function="internal">
        <lane id=":C_5_0" index="0" speed="6.51" length="9.03" shape="278.50,656.07 277.58,658.37 277.62,660.41 278.61,662.19 280.55,663.72"/>
    </edge>
    <edge id=":C_6" function="internal">
        <lane id=":C_6_0" index="0" speed="35.00" length="27.20" shape="278.50,656.07 264.90,679.62"/>
        <lane id=":C_6_1" index="1" speed="35.00" length="27.20" shape="275.73,654.47 262.13,678.02"/>
        <lane id=":C_6_2" index="2" speed="35.00" length="27.20" shape="272.96,652.87 259.36,676.42"/>
    </edge>
    <edge id=":C_9" function="internal">
        <lane id=":C_9_0" index="0" speed="10.36" length="5.01" shape="272.96,652.87 269.87,656.81"/>
    </edge>
    <edge id=":C_21" function="internal">
        <lane id=":C_21_0" index="0" speed="10.36" length="19.50" shape="269.87,656.81 268.81,658.15 263.97,660.84 258.43,660.93 252.20,658.43"/>
    </edge>
    <edge id=":C_10" function="internal">
        <lane id=":C_10_0" index="0" speed="6.51" length="9.03" shape="257.00,650.12 259.30,651.04 261.34,651.01 263.12,650.02 264.65,648.07"/>
    </edge>
    <edge id=":C_11" function="internal">
        <lane id=":C_11_0" index="0" speed="35.00" length="27.20" shape="257.00,650.12 280.55,663.72"/>
        <lane id=":C_11_1" index="1" speed="35.00" length="27.20" shape="255.40,652.89 278.95,666.49"/>
        <lane id=":C_11_2" index="2" speed="35.00" length="27.20" shape="253.80,655.66 277.35,669.26"/>
    </edge>
    <edge id=":C_14" function="internal">
        <lane id=":C_14_0" index="0" speed="10.36" length="5.01" shape="253.80,655.66 257.74,658.76"/>
    </edge>
    <edge id=":C_22" function="internal">
        <lane id=":C_22_0" index="0" speed="10.36" length="19.50" shape="257.74,658.76 259.08,659.81 261.77,664.65 261.86,670.19 259.36,676.42"/>
    </edge>
    <edge id=":C_15" function="internal">
        <lane id=":C_15_0" index="0" speed="6.51" length="9.03" shape="251.05,671.62 251.97,669.33 251.94,667.29 250.95,665.50 249.00,663.97"/>
    </edge>
    <edge id=":C_16" function="internal">
        <lane id=":C_16_0" index="0" speed="35.00" length="27.20" shape="251.05,671.62 264.65,648.07"/>
        <lane id=":C_16_1" index="1" speed="35.00" length="27.20" shape="253.82,673.22 267.42,649.67"/>
        <lane id=":C_16_2" index="2" speed="35.00" length="27.20" shape="256.59,674.82 270.19,651.27"/>
    </edge>
    <edge id=":C_19" function="internal">
        <lane id=":C_19_0" index="0" speed="10.36" length="5.01" shape="256.59,674.82 259.69,670.88"/>
    </edge>
    <edge id=":C_23" function="internal">
        <lane id=":C_23_0" index="0" speed="10.36" length="19.50" shape="259.69,670.88 260.74,669.54 265.58,666.85 271.12,666.76 277.35,669.26"/>
    </edge>
    <edge id=":CA_0" function="internal">
        <lane id=":CA_0_0" index="0" speed="3.65" length="4.67" shape="416.26,398.27 417.55,397.63 418.45,397.68 418.94,398.43 419.03,399.87"/>
    </edge>
    <edge id=":CB_0" function="internal">
        <lane id=":CB_0_0" index="0" speed="3.65" length="4.67" shape="-0.80,512.36 -1.44,511.07 -1.39,510.18 -0.64,509.68 0.80,509.59"/>
    </edge>
    <edge id=":CC_0" function="internal">
        <lane id=":CC_0_0" index="0" speed="3.65" length="4.67" shape="113.29,929.42 112.00,930.06 111.11,930.01 110.62,929.26 110.52,927.82"/>
    </edge>
    <edge id=":TL_0" function="internal">
        <lane id=":TL_0_0" index="0" speed="6.75" length="5.88" shape="511.95,819.02,0.01 511.78,817.51,0.01 511.25,816.20,0.01 510.38,815.08,0.00 509.15,814.17"/>
        <lane id=":TL_0_1" index="1" speed="8.31" length="9.24" shape="515.15,819.02,0.01 514.88,816.64,0.01 514.05,814.58,0.01 512.68,812.83,0.00 510.75,811.40"/>
        <lane id=":TL_0_2" index="2" speed="9.62" length="12.60" shape="518.35,819.02,0.01 517.98,815.78,0.01 516.85,812.96,0.01 514.98,810.58,0.00 512.35,808.63"/>
        <lane id=":TL_0_3" index="3" speed="10.27" length="14.42" shape="521.55,819.02,0.01 520.98,816.47,0.01 519.25,813.89,0.01 516.38,811.27,0.00 512.35,808.63"/>
        <lane id=":TL_0_4" index="4" speed="10.95" length="16.50" shape="524.75,819.02,0.01 523.98,817.16,0.01 521.65,814.81,0.01 517.78,811.97,0.00 512.35,808.63"/>
        <lane id=":TL_0_5" index="5" speed="11.67" length="18.82" shape="527.95,819.02,0.01 526.98,817.86,0.01 524.05,815.73,0.01 519.18,812.66,0.01 512.35,808.63"/>
    </edge>
    <edge id=":TL_6" function="internal">
        <lane id=":TL_6_0" index="0" speed="10.36" length="0.85" shape="527.95,819.02,0.01 528.25,818.23,0.01"/>
    </edge>
    <edge id=":TL_13" function="internal">
        <lane id=":TL_13_0" index="0" speed="10.36" length="13.85" shape="528.25,818.23,0.01 528.63,817.22,0.01 530.65,815.04,0.01 534.03,812.49,0.00 538.75,809.56"/>
    </edge>
    <edge id=":TL_7" function="internal">
        <lane id=":TL_7_0" index="0" speed="7.59" length="7.59" shape="540.35,812.33 539.13,813.35,0.00 538.25,814.81,0.01 537.73,816.70,0.01 537.55,819.02,0.01"/>
    </edge>
    <edge id=":TL_8" function="internal">
        <lane id=":TL_8_0" index="0" speed="13.07" length="23.77" shape="517.15,800.32 525.55,804.97 531.95,808.06 536.35,809.59 538.75,809.56"/>
    </edge>
    <edge id=":TL_9" function="internal">
        <lane id=":TL_9_0" index="0" speed="14.26" length="28.41" shape="517.15,800.32 526.08,805.90,0.00 532.45,810.88,0.01 536.28,815.26,0.01 537.55,819.02,0.01"/>
        <lane id=":TL_9_1" index="1" speed="13.44" length="25.15" shape="515.55,803.09 523.78,808.16,0.00 529.65,812.50,0.01 533.18,816.12,0.01 534.35,819.02,0.01"/>
        <lane id=":TL_9_2" index="2" speed="12.57" length="21.94" shape="513.95,805.86 521.48,810.41,0.01 526.85,814.12,0.01 530.08,816.99,0.01 531.15,819.02,0.01"/>
    </edge>
    <edge id=":TL_12" function="internal">
        <lane id=":TL_12_0" index="0" speed="3.65" length="1.44" shape="513.95,805.86 514.59,807.15"/>
    </edge>
    <edge id=":TL_14" function="internal">
        <lane id=":TL_14_0" index="0" speed="3.65" length="3.23" shape="514.59,807.15 514.54,808.05 513.79,808.54 512.35,808.63"/>
    </edge>

    <edge id="A2AA" from="A" to="AA" priority="-1">
        <lane id="A2AA_0" index="0" speed="35.00" length="283.15" shape="506.35,1140.66,1.68 223.21,1140.66,1.68"/>
        <lane id="A2AA_1" index="1" speed="35.00" length="283.15" shape="506.35,1137.46,1.68 223.21,1137.46,1.68"/>
        <lane id="A2AA_2" index="2" speed="35.00" length="283.15" shape="506.35,1134.26,1.68 223.21,1134.26,1.68"/>
        <lane id="A2AA_3" index="3" speed="35.00" length="283.15" shape="506.35,1131.06,1.68 223.21,1131.06,1.68"/>
        <lane id="A2AA_4" index="4" speed="35.00" length="283.15" shape="506.35,1127.86,1.68 223.21,1127.86,1.68"/>
        <lane id="A2AA_5" index="5" speed="35.00" length="283.15" shape="506.35,1124.66,1.68 223.21,1124.66,1.68"/>
    </edge>
    <edge id="A2AB" from="A" to="AB" priority="-1">
        <lane id="A2AB_0" index="0" speed="35.00" length="283.15" shape="547.15,1146.26,1.68 547.15,1429.41,1.68"/>
        <lane id="A2AB_1" index="1" speed="35.00" length="283.15" shape="543.95,1146.26,1.68 543.95,1429.41,1.68"/>
        <lane id="A2AB_2" index="2" speed="35.00" length="283.15" shape="540.75,1146.26,1.68 540.75,1429.41,1.68"/>
        <lane id="A2AB_3" index="3" speed="35.00" length="283.15" shape="537.55,1146.26,1.68 537.55,1429.41,1.68"/>
        <lane id="A2AB_4" index="4" speed="35.00" length="283.15" shape="534.35,1146.26,1.68 534.35,1429.41,1.68"/>
        <lane id="A2AB_5" index="5" speed="35.00" length="283.15" shape="531.15,1146.26,1.68 531.15,1429.41,1.68"/>
    </edge>
    <edge id="A2AC" from="A" to="AC" priority="-1">
        <lane id="A2AC_0" index="0" speed="35.00" length="283.15" shape="552.75,1105.46,1.68 835.90,1105.46,1.68"/>
        <lane id="A2AC_1" index="1" speed="35.00" length="283.15" shape="552.75,1108.66,1.68 835.90,1108.66,1.68"/>
        <lane id="A2AC_2" index="2" speed="35.00" length="283.15" shape="552.75,1111.86,1.68 835.90,1111.86,1.68"/>
        <lane id="A2AC_3" index="3" speed="35.00" length="283.15" shape="552.75,1115.06,1.68 835.90,1115.06,1.68"/>
        <lane id="A2AC_4" index="4" speed="35.00" length="283.15" shape="552.75,1118.26,1.68 835.90,1118.26,1.68"/>
        <lane id="A2AC_5" index="5" speed="35.00" length="283.15" shape="552.75,1121.46,1.68 835.90,1121.46,1.68"/>
    </edge>
    <edge id="A2TL" from="A" to="TL" priority="-1">
        <lane id="A2TL_0" index="0" speed="35.00" length="280.84" shape="511.95,1099.86,1.55 511.95,819.02,0.01"/>
        <lane id="A2TL_1" index="1" speed="35.00" length="280.84" shape="515.15,1099.86,1.55 515.15,819.02,0.01"/>
        <lane id="A2TL_2" index="2" speed="35.00" length="280.84" shape="518.35,1099.86,1.55 518.35,819.02,0.01"/>
        <lane id="A2TL_3" index="3" speed="35.00" length="280.84" shape="521.55,1099.86,1.55 521.55,819.02,0.01"/>
        <lane id="A2TL_4" index="4" speed="35.00" length="280.84" shape="524.75,1099.86,1.55 524.75,819.02,0.01"/>
        <lane id="A2TL_5" index="5" speed="35.00" length="280.84" shape="527.95,1099.86,1.55 527.95,819.02,0.01"/>
    </edge>
    <edge id="AA2A" from="AA" to="A" priority="-1">
        <lane id="AA2A_0" index="0" speed="35.00" length="283.15" shape="223.21,1115.06,1.68 506.35,1115.06,1.68"/>
        <lane id="AA2A_1" index="1" speed="35.00" length="283.15" shape="223.21,1118.26,1.68 506.35,1118.26,1.68"/>
        <lane id="AA2A_2" index="2" speed="35.00" length="283.15" shape="223.21,1121.46,1.68 506.35,1121.46,1.68"/>
    </edge>
    <edge id="AB2A" from="AB" to="A" priority="-1">
        <lane id="AB2A_0" index="0" speed="35.00" length="283.15" shape="521.55,1429.41,1.68 521.55,1146.26,1.68"/>
        <lane id="AB2A_1" index="1" speed="35.00" length="283.15" shape="524.75,1429.41,1.68 524.75,1146.26,1.68"/>
        <lane id="AB2A_2" index="2" speed="35.00" length="283.15" shape="527.95,1429.41,1.68 527.95,1146.26,1.68"/>
    </edge>
    <edge id="AC2A" from="AC" to="A" priority="-1">
        <lane id="AC2A_0" index="0" speed="35.00" length="283.15" shape="835.90,1131.06,1.68 552.75,1131.06,1.68"/>
        <lane id="AC2A_1" index="1" speed="35.00" length="283.15" shape="835.90,1127.86,1.68 552.75,1127.86,1.68"/>
        <lane id="AC2A_2" index="2" speed="35.00" length="283.15" shape="835.90,1124.66,1.68 552.75,1124.66,1.68"/>
    </edge>
    <edge id="B2BA" from="B" to="BA" priority="-1">
        <lane id="B2BA_0" index="0" speed="25.00" length="590.68" shape="1052.32,523.21,31.33 1347.65,1034.75,31.33"/>
    </edge>
    <edge id="B2BB" from="B" to="BB" priority="-1">
        <lane id="B2BB_0" index="0" speed="25.00" length="590.68" shape="1052.77,512.79,31.33 1564.31,217.45,31.33"/>
    </edge>
    <edge id="B2BC" from="B" to="BC" priority="-1">
        <lane id="B2BC_0" index="0" speed="25.00" length="590.68" shape="1042.34,512.34,31.33 747.01,0.80,31.33"/>
    </edge>
    <edge id="B2TL" from="B" to="TL" priority="-1">
        <lane id="B2TL_0" index="0" speed="25.00" length="579.98" shape="1041.89,522.76,31.33 540.35,812.33"/>
    </edge>
    <edge id="BA2B" from="BA" to="B" priority="-1">
        <lane id="BA2B_0" index="0" speed="25.00" length="590.68" shape="1344.88,1036.35,31.33 1049.54,524.81,31.33"/>
    </edge>
    <edge id="BB2B" from="BB" to="B" priority="-1">
        <lane id="BB2B_0" index="0" speed="25.00" length="590.68" shape="1565.91,220.22,31.33 1054.37,515.56,31.33"/>
    </edge>
    <edge id="BC2B" from="BC" to="B" priority="-1">
        <lane id="BC2B_0" index="0" speed="25.00" length="590.68" shape="749.78,-0.80,31.33 1045.12,510.74,31.33"/>
    </edge>
    <edge id="C2CA" from="C" to="CA" priority="-1">
        <lane id="C2CA_0" index="0" speed="35.00" length="292.14" shape="264.65,648.07 410.72,395.07"/>
        <lane id="C2CA_1" index="1" speed="35.00" length="292.14" shape="267.42,649.67 413.49,396.67"/>
        <lane id="C2CA_2" index="2" speed="35.00" length="292.14" shape="270.19,651.27 416.26,398.27"/>
    </edge>
    <edge id="C2CB" from="C" to="CB" priority="-1">
        <lane id="C2CB_0" index="0" speed="35.00" length="292.14" shape="249.00,663.97 -4.00,517.91"/>
        <lane id="C2CB_1" index="1" speed="35.00" length="292.14" shape="250.60,661.20 -2.40,515.13"/>
        <lane id="C2CB_2" index="2" speed="35.00" length="292.14" shape="252.20,658.43 -0.80,512.36"/>
    </edge>
    <edge id="C2CC" from="C" to="CC" priority="-1">
        <lane id="C2CC_0" index="0" speed="35.00" length="292.14" shape="264.90,679.62 118.84,932.62"/>
        <lane id="C2CC_1" index="1" speed="35.00" length="292.14" shape="262.13,678.02 116.06,931.02"/>
        <lane id="C2CC_2" index="2" speed="35.00" length="292.14" shape="259.36,676.42 113.29,929.42"/>
    </edge>
    <edge id="C2TL" from="C" to="TL" priority="-1">
        <lane id="C2TL_0" index="0" speed="35.00" length="273.20" shape="280.55,663.72 517.15,800.32"/>
        <lane id="C2TL_1" index="1" speed="35.00" length="273.20" shape="278.95,666.49 515.55,803.09"/>
        <lane id="C2TL_2" index="2" speed="35.00" length="273.20" shape="277.35,669.26 513.95,805.86"/>
    </edge>
    <edge id="CA2C" from="CA" to="C" priority="-1">
        <lane id="CA2C_0" index="0" speed="35.00" length="292.14" shape="424.57,403.07 278.50,656.07"/>
        <lane id="CA2C_1" index="1" speed="35.00" length="292.14" shape="421.80,401.47 275.73,654.47"/>
        <lane id="CA2C_2" index="2" speed="35.00" length="292.14" shape="419.03,399.87 272.96,652.87"/>
    </edge>
    <edge id="CB2C" from="CB" to="C" priority="-1">
        <lane id="CB2C_0" index="0" speed="35.00" length="292.14" shape="4.00,504.05 257.00,650.12"/>
        <lane id="CB2C_1" index="1" speed="35.00" length="292.14" shape="2.40,506.82 255.40,652.89"/>
        <lane id="CB2C_2" index="2" speed="35.00" length="292.14" shape="0.80,509.59 253.80,655.66"/>
    </edge>
    <edge id="CC2C" from="CC" to="C" priority="-1">
        <lane id="CC2C_0" index="0" speed="35.00" length="292.14" shape="104.98,924.62 251.05,671.62"/>
        <lane id="CC2C_1" index="1" speed="35.00" length="292.14" shape="107.75,926.22 253.82,673.22"/>
        <lane id="CC2C_2" index="2" speed="35.00" length="292.14" shape="110.52,927.82 256.59,674.82"/>
    </edge>
    <edge id="TL2A" from="TL" to="A" priority="-1">
        <lane id="TL2A_0" index="0" speed="35.00" length="280.84" shape="537.55,819.02,0.01 537.55,1099.86,1.55"/>
        <lane id="TL2A_1" index="1" speed="35.00" length="280.84" shape="534.35,819.02,0.01 534.35,1099.86,1.55"/>
        <lane id="TL2A_2" index="2" speed="35.00" length="280.84" shape="531.15,819.02,0.01 531.15,1099.86,1.55"/>
    </edge>
    <edge id="TL2B" from="TL" to="B" priority="-1">
        <lane id="TL2B_0" index="0" speed="25.00" length="579.98" shape="538.75,809.56 1040.29,519.99,31.33"/>
    </edge>
    <edge id="TL2C" from="TL" to="C" priority="-1">
        <lane id="TL2C_0" index="0" speed="35.00" length="273.20" shape="509.15,814.17 272.55,677.57"/>
        <lane id="TL2C_1" index="1" speed="35.00" length="273.20" shape="510.75,811.40 274.15,674.80"/>
        <lane id="TL2C_2" index="2" speed="35.00" length="273.20" shape="512.35,808.63 275.75,672.03"/>
    </edge>

    <tlLogic id="A" type="static" programID="0" offset="0">
        <phase duration="38" state="GGGGgrrrrrGGGGgrrrrr"/>
        <phase duration="7"  state="yyyyyrrrrryyyyyrrrrr"/>
        <phase duration="38" state="rrrrrGGGGgrrrrrGGGGg"/>
        <phase duration="7"  state="rrrrryyyyyrrrrryyyyy"/>
    </tlLogic>
    <tlLogic id="AA" type="static" programID="0" offset="0">
        <phase duration="78" state="G"/>
        <phase duration="7"  state="y"/>
        <phase duration="5"  state="r"/>
    </tlLogic>
    <tlLogic id="AB" type="static" programID="0" offset="0">
        <phase duration="78" state="G"/>
        <phase duration="7"  state="y"/>
        <phase duration="5"  state="r"/>
    </tlLogic>
    <tlLogic id="AC" type="static" programID="0" offset="0">
        <phase duration="78" state="G"/>
        <phase duration="7"  state="y"/>
        <phase duration="5"  state="r"/>
    </tlLogic>
    <tlLogic id="B" type="static" programID="0" offset="0">
        <phase duration="40" state="GGrrGGrr"/>
        <phase duration="5"  state="yyrryyrr"/>
        <phase duration="40" state="rrGGrrGG"/>
        <phase duration="5"  state="rryyrryy"/>
    </tlLogic>
    <tlLogic id="BA" type="static" programID="0" offset="0">
        <phase duration="80" state="G"/>
        <phase duration="5"  state="y"/>
        <phase duration="5"  state="r"/>
    </tlLogic>
    <tlLogic id="BB" type="static" programID="0" offset="0">
        <phase duration="80" state="G"/>
        <phase duration="5"  state="y"/>
        <phase duration="5"  state="r"/>
    </tlLogic>
    <tlLogic id="BC" type="static" programID="0" offset="0">
        <phase duration="80" state="G"/>
        <phase duration="5"  state="y"/>
        <phase duration="5"  state="r"/>
    </tlLogic>
    <tlLogic id="C" type="static" programID="0" offset="0">
        <phase duration="38" state="GGGGgrrrrrGGGGgrrrrr"/>
        <phase duration="7"  state="yyyyyrrrrryyyyyrrrrr"/>
        <phase duration="38" state="rrrrrGGGGgrrrrrGGGGg"/>
        <phase duration="7"  state="rrrrryyyyyrrrrryyyyy"/>
    </tlLogic>
    <tlLogic id="CA" type="static" programID="0" offset="0">
        <phase duration="78" state="G"/>
        <phase duration="7"  state="y"/>
        <phase duration="5"  state="r"/>
    </tlLogic>
    <tlLogic id="CB" type="static" programID="0" offset="0">
        <phase duration="78" state="G"/>
        <phase duration="7"  state="y"/>
        <phase duration="5"  state="r"/>
    </tlLogic>
    <tlLogic id="CC" type="static" programID="0" offset="0">
        <phase duration="78" state="G"/>
        <phase duration="7"  state="y"/>
        <phase duration="5"  state="r"/>
    </tlLogic>
    <tlLogic id="TL" type="static" programID="0" offset="0">
        <phase duration="32" state="GGGgggrrGGGGg"/>
        <phase duration="7"  state="yyyyyyrryyyyy"/>
        <phase duration="6"  state="GGGgggGsrrrrr"/>
        <phase duration="7"  state="yyyyyyysrrrrr"/>
        <phase duration="31" state="GGGgggGGrrrrr"/>
        <phase duration="7"  state="yyyyyyyyrrrrr"/>
    </tlLogic>

    <junction id="A" type="traffic_light" x="529.55" y="1123.06" z="1.68" incLanes="AB2A_0 AB2A_1 AB2A_2 AC2A_0 AC2A_1 AC2A_2 TL2A_0 TL2A_1 TL2A_2 AA2A_0 AA2A_1 AA2A_2" intLanes=":A_0_0 :A_1_0 :A_1_1 :A_1_2 :A_20_0 :A_5_0 :A_6_0 :A_6_1 :A_6_2 :A_21_0 :A_10_0 :A_11_0 :A_11_1 :A_11_2 :A_22_0 :A_15_0 :A_16_0 :A_16_1 :A_16_2 :A_23_0" shape="519.95,1146.26,1.68 548.75,1146.26,1.68 548.86,1142.11,1.68 549.20,1138.71,1.68 549.75,1136.06,1.68 550.53,1134.17,1.68 551.53,1133.04,1.68 552.75,1132.66,1.68 552.75,1103.86,1.68 548.60,1103.75,1.68 545.20,1103.42,1.68 542.55,1102.86,1.68 540.66,1102.08,1.68 539.53,1101.08,1.68 539.15,1099.86,1.68 510.35,1099.86,1.68 510.24,1104.02,1.68 509.91,1107.42,1.68 509.35,1110.06,1.68 508.58,1111.95,1.68 507.58,1113.08,1.68 506.35,1113.46,1.68 506.35,1142.26,1.68 510.51,1142.37,1.68 513.91,1142.71,1.68 516.55,1143.26,1.68 518.44,1144.04,1.68 519.58,1145.04,1.68">
        <request index="0"  response="00000000000000000000" foes="00000000000111000000" cont="0"/>
        <request index="1"  response="10000000000000000000" foes="11111100000111000000" cont="0"/>
        <request index="2"  response="10000000000000000000" foes="11111100000111000000" cont="0"/>
        <request index="3"  response="10000000000000000000" foes="11111100000111000000" cont="0"/>
        <request index="4"  response="10000011101000000000" foes="10000011101111000000" cont="1"/>
        <request index="5"  response="00000011100000000000" foes="00000011100000000000" cont="0"/>
        <request index="6"  response="00000011100000011111" foes="10000011100000011111" cont="0"/>
        <request index="7"  response="00000011100000011111" foes="10000011100000011111" cont="0"/>
        <request index="8"  response="00000011100000011111" foes="10000011100000011111" cont="0"/>