<?xml version="1.0" encoding="UTF-8"?>

<!-- generated on 2022-10-11 16:45:16 by Eclipse SUMO netconvert Version 1.14.1
<configuration xmlns:xsi="http://www.w3.org/2001/XMLSchema-instance" xsi:noNamespaceSchemaLocation="http://sumo.dlr.de/xsd/netconvertConfiguration.xsd">

    <input>
        <node-files value="../data/salt-lake-city/nodes.nod.xml"/>
        <edge-files value="../data/salt-lake-city/edges.edg.xml"/>
        <connection-files value="../data/salt-lake-city/connections.con.xml"/>
    </input>

    <output>
        <output-file value="../data/salt-lake-city/sumo/net/198.net.xml"/>
    </output>

    <tls_building>
        <tls.minor-left.max-speed value="1"/>
    </tls_building>

    <report>
        <verbose value="true"/>
    </report>

</configuration>
-->

<net version="1.9" junctionCornerDetail="5" limitTurnSpeed="5.50" xmlns:xsi="http://www.w3.org/2001/XMLSchema-instance" xsi:noNamespaceSchemaLocation="http://sumo.dlr.de/xsd/net_file.xsd">

    <location netOffset="159.43,79.72" convBoundary="0.00,0.00,239.83,159.43" origBoundary="-159.43,-79.72,80.40,79.72" projParameter="!"/>

    <edge id=":B_0" function="internal">
        <lane id=":B_0_0" index="0" speed="6.51" length="9.03" shape="194.83,90.12,-0.06 194.48,87.67,-0.06 193.43,85.92,-0.05 191.68,84.87,-0.05 189.23,84.52,-0.05"/>
    </edge>
    <edge id=":B_1" function="internal">
        <lane id=":B_1_0" index="0" speed="40.00" length="20.80" shape="194.83,90.12,-0.06 194.83,69.32,-0.06"/>
        <lane id=":B_1_1" index="1" speed="40.00" length="20.80" shape="198.03,90.12,-0.06 198.03,69.32,-0.06"/>
    </edge>
    <edge id=":B_3" function="internal">
        <lane id=":B_3_0" index="0" speed="9.26" length="5.01" shape="198.03,90.12,-0.06 198.74,85.15,-0.06"/>
    </edge>
    <edge id=":B_16" function="internal">
        <lane id=":B_16_0" index="0" speed="9.26" length="14.34" shape="198.74,85.15,-0.06 198.78,84.87,-0.06 201.03,81.12,-0.06 204.78,78.87,-0.06 210.03,78.12,-0.06"/>
    </edge>
    <edge id=":B_4" function="internal">
        <lane id=":B_4_0" index="0" speed="6.51" length="9.03" shape="210.03,84.52,-0.06 207.58,84.87,-0.06 205.83,85.92,-0.06 204.78,87.67,-0.06 204.43,90.12,-0.06"/>
    </edge>
    <edge id=":B_5" function="internal">
        <lane id=":B_5_0" index="0" speed="40.00" length="20.80" shape="210.03,84.52,-0.06 189.23,84.52,-0.05"/>
        <lane id=":B_5_1" index="1" speed="40.00" length="20.80" shape="210.03,81.32,-0.06 189.23,81.32,-0.05"/>
    </edge>
    <edge id=":B_7" function="internal">
        <lane id=":B_7_0" index="0" speed="9.26" length="5.01" shape="210.03,81.32,-0.06 205.07,80.61,-0.06"/>
    </edge>
    <edge id=":B_17" function="internal">
        <lane id=":B_17_0" index="0" speed="9.26" length="14.34" shape="205.07,80.61,-0.06 204.78,80.57,-0.06 201.03,78.32,-0.06 198.78,74.57,-0.06 198.03,69.32,-0.06"/>
    </edge>
    <edge id=":B_8" function="internal">
        <lane id=":B_8_0" index="0" speed="6.51" length="9.03" shape="204.43,69.32,-0.06 204.78,71.77,-0.06 205.83,73.52,-0.06 207.58,74.57,-0.06 210.03,74.92,-0.06"/>
    </edge>
    <edge id=":B_9" function="internal">
        <lane id=":B_9_0" index="0" speed="40.00" length="20.80" shape="204.43,69.32,-0.06 204.43,90.12,-0.06"/>
        <lane id=":B_9_1" index="1" speed="40.00" length="20.80" shape="201.23,69.32,-0.06 201.23,90.12,-0.06"/>
    </edge>
    <edge id=":B_11" function="internal">
        <lane id=":B_11_0" index="0" speed="9.26" length="5.01" shape="201.23,69.32,-0.06 200.52,74.28,-0.06"/>
    </edge>
    <edge id=":B_18" function="internal">
        <lane id=":B_18_0" index="0" speed="9.26" length="14.34" shape="200.52,74.28,-0.06 200.48,74.57,-0.06 198.23,78.32,-0.05 194.48,80.57,-0.05 189.23,81.32,-0.05"/>
    </edge>
    <edge id=":B_12" function="internal">
        <lane id=":B_12_0" index="0" speed="6.51" length="9.03" shape="189.23,74.92,-0.05 191.68,74.57,-0.05 193.43,73.52,-0.05 194.48,71.77,-0.06 194.83,69.32,-0.06"/>
    </edge>
    <edge id=":B_13" function="internal">
        <lane id=":B_13_0" index="0" speed="40.00" length="20.80" shape="189.23,74.92,-0.05 210.03,74.92,-0.06"/>
        <lane id=":B_13_1" index="1" speed="40.00" length="20.80" shape="189.23,78.12,-0.05 210.03,78.12,-0.06"/>
    </edge>
    <edge id=":B_15" function="internal">
        <lane id=":B_15_0" index="0" speed="9.26" length="5.01" shape="189.23,78.12,-0.05 194.19,78.83,-0.05"/>
    </edge>
    <edge id=":B_19" function="internal">
        <lane id=":B_19_0" index="0" speed="9.26" length="14.34" shape="194.19,78.83,-0.05 194.48,78.87,-0.05 198.23,81.12,-0.05 200.48,84.87,-0.06 201.23,90.12,-0.06"/>
    </edge>
    <edge id=":BA_0" function="internal">
        <lane id=":BA_0_0" index="0" speed="3.65" length="4.67" shape="201.23,119.91,-0.06 200.43,121.11,-0.06 199.63,121.51,-0.06 198.83,121.11,-0.06 198.03,119.91,-0.06"/>
    </edge>
    <edge id=":BB_0" function="internal">
        <lane id=":BB_0_0" index="0" speed="3.65" length="4.67" shape="239.83,78.12,-0.06 241.03,78.92,-0.06 241.43,79.72,-0.06 241.03,80.52,-0.06 239.83,81.32,-0.06"/>
    </edge>
    <edge id=":BC_0" function="internal">
        <lane id=":BC_0_0" index="0" speed="3.65" length="4.67" shape="198.03,39.52,-0.06 198.83,38.32,-0.06 199.63,37.92,-0.06 200.43,38.32,-0.06 201.23,39.52,-0.06"/>
    </edge>
    <edge id=":D_0" function="internal">
        <lane id=":D_0_0" index="0" speed="7.33" length="11.73" shape="74.92,93.32,0.17 74.37,90.87,0.17 72.72,89.12,0.17 69.97,88.07,0.17 66.12,87.72,0.17"/>
    </edge>
    <edge id=":D_1" function="internal">
        <lane id=":D_1_0" index="0" speed="40.00" length="27.43" shape="74.92,93.32,0.17 74.42,86.77,0.17 73.32,81.10,0.17 72.22,74.74,0.17 71.72,66.12,0.17"/>
        <lane id=":D_1_1" index="1" speed="40.00" length="27.43" shape="78.12,93.32,0.17 77.62,86.77,0.17 76.52,81.10,0.17 75.42,74.74,0.17 74.92,66.12,0.17"/>
    </edge>
    <edge id=":D_3" function="internal">
        <lane id=":D_3_0" index="0" speed="10.36" length="10.84" shape="78.12,93.32,0.17 79.07,86.67,0.16 81.19,83.13,0.16"/>
    </edge>
    <edge id=":D_16" function="internal">
        <lane id=":D_16_0" index="0" speed="10.36" length="13.67" shape="81.19,83.13,0.16 81.92,81.92,0.16 86.67,79.07,0.15 93.32,78.12,0.14"/>
    </edge>
    <edge id=":D_4" function="internal">
        <lane id=":D_4_0" index="0" speed="7.33" length="11.73" shape="93.32,84.52,0.14 90.87,85.07,0.15 89.12,86.72,0.15 88.07,89.47,0.16 87.72,93.32,0.17"/>
    </edge>
    <edge id=":D_5" function="internal">
        <lane id=":D_5_0" index="0" speed="40.00" length="27.43" shape="93.32,84.52,0.14 86.77,85.02,0.15 81.10,86.12,0.15 74.74,87.22,0.16 66.12,87.72,0.17"/>
        <lane id=":D_5_1" index="1" speed="40.00" length="27.43" shape="93.32,81.32,0.14 86.77,81.82,0.15 81.10,82.92,0.15 74.74,84.02,0.16 66.12,84.52,0.17"/>
    </edge>
    <edge id=":D_7" function="internal">
        <lane id=":D_7_0" index="0" speed="10.36" length="10.84" shape="93.32,81.32,0.14 86.67,80.37,0.15 83.13,78.24,0.15"/>
    </edge>
    <edge id=":D_17" function="internal">
        <lane id=":D_17_0" index="0" speed="10.36" length="13.67" shape="83.13,78.24,0.15 81.92,77.52,0.16 79.07,72.77,0.16 78.12,66.12,0.17"/>
    </edge>
    <edge id=":D_8" function="internal">
        <lane id=":D_8_0" index="0" speed="7.33" length="11.73" shape="84.52,66.12,0.17 85.07,68.57,0.16 86.72,70.32,0.16 89.47,71.37,0.15 93.32,71.72,0.14"/>
    </edge>
    <edge id=":D_9" function="internal">
        <lane id=":D_9_0" index="0" speed="40.00" length="27.43" shape="84.52,66.12,0.17 85.02,72.66,0.17 86.12,78.33,0.17 87.22,84.70,0.17 87.72,93.32,0.17"/>
        <lane id=":D_9_1" index="1" speed="40.00" length="27.43" shape="81.32,66.12,0.17 81.82,72.66,0.17 82.92,78.33,0.17 84.02,84.70,0.17 84.52,93.32,0.17"/>
    </edge>
    <edge id=":D_11" function="internal">
        <lane id=":D_11_0" index="0" speed="10.36" length="10.84" shape="81.32,66.12,0.17 80.37,72.77,0.17 78.24,76.30,0.17"/>
    </edge>
    <edge id=":D_18" function="internal">
        <lane id=":D_18_0" index="0" speed="10.36" length="13.67" shape="78.24,76.30,0.17 77.52,77.52,0.17 72.77,80.37,0.17 66.12,81.32,0.17"/>
    </edge>
    <edge id=":D_12" function="internal">
        <lane id=":D_12_0" index="0" speed="7.33" length="11.73" shape="66.12,74.92,0.17 68.57,74.37,0.17 70.32,72.72,0.17 71.37,69.97,0.17 71.72,66.12,0.17"/>
    </edge>
    <edge id=":D_13" function="internal">
        <lane id=":D_13_0" index="0" speed="40.00" length="27.43" shape="66.12,74.92,0.17 72.66,74.42,0.16 78.33,73.32,0.16 84.70,72.22,0.15 93.32,71.72,0.14"/>
        <lane id=":D_13_1" index="1" speed="40.00" length="27.43" shape="66.12,78.12,0.17 72.66,77.62,0.16 78.33,76.52,0.16 84.70,75.42,0.15 93.32,74.92,0.14"/>
    </edge>
    <edge id=":D_15" function="internal">
        <lane id=":D_15_0" index="0" speed="10.36" length="10.84" shape="66.12,78.12,0.17 72.77,79.07,0.17 76.30,81.19,0.17"/>
    </edge>
    <edge id=":D_19" function="internal">
        <lane id=":D_19_0" index="0" speed="10.36" length="13.67" shape="76.30,81.19,0.17 77.52,81.92,0.17 80.37,86.67,0.17 81.32,93.32,0.17"/>
    </edge>
    <edge id=":DA_0" function="internal">
        <lane id=":DA_0_0" index="0" speed="3.65" length="4.67" shape="78.12,0.00,0.17 78.92,-1.20,0.17 79.72,-1.60,0.17 80.52,-1.20,0.17 81.32,0.00,0.17"/>
    </edge>
    <edge id=":DB_0" function="internal">
        <lane id=":DB_0_0" index="0" speed="3.65" length="4.67" shape="0.00,81.32,0.17 -1.20,80.52,0.17 -1.60,79.72,0.17 -1.20,78.92,0.17 0.00,78.12,0.17"/>
    </edge>
    <edge id=":DC_0" function="internal">
        <lane id=":DC_0_0" index="0" speed="3.65" length="4.67" shape="81.32,159.43,0.17 80.52,160.63,0.17 79.72,161.03,0.17 78.92,160.63,0.17 78.12,159.43,0.17"/>
    </edge>
    <edge id=":TL_0" function="internal">
        <lane id=":TL_0_0" index="0" speed="6.02" length="7.57" shape="169.83,84.52,-0.02 167.38,84.75,0.00 165.63,85.44,0.01 164.58,86.60,0.03 164.23,88.22,0.04"/>
    </edge>
    <edge id=":TL_1" function="internal">
        <lane id=":TL_1_0" index="0" speed="40.00" length="14.40" shape="169.83,84.52,-0.02 155.43,84.52,0.01"/>
        <lane id=":TL_1_1" index="1" speed="40.00" length="14.40" shape="169.83,81.32,-0.02 155.43,81.32,0.01"/>
    </edge>
    <edge id=":TL_3" function="internal">
        <lane id=":TL_3_0" index="0" speed="70.00" length="21.06" shape="164.23,67.16 164.23,88.22,0.04"/>
    </edge>
    <edge id=":TL_4" function="internal">
        <lane id=":TL_4_0" index="0" speed="9.74" length="21.54" shape="164.23,67.16 163.68,74.76,0.00 162.03,80.18,0.01 159.28,83.43,0.01 155.43,84.52,0.01"/>
        <lane id=":TL_4_1" index="1" speed="8.59" length="16.53" shape="161.03,67.16 160.68,73.36,0.00 159.63,77.78,0.01 157.88,80.43,0.01 155.43,81.32,0.01"/>
    </edge>
    <edge id=":TL_6" function="internal">
        <lane id=":TL_6_0" index="0" speed="40.00" length="14.86" shape="155.43,71.72,0.01 159.76,72.22,0.00 162.63,73.32,-0.00 165.51,74.42,-0.01 169.83,74.92,-0.02"/>
        <lane id=":TL_6_1" index="1" speed="40.00" length="14.86" shape="155.43,74.92,0.01 159.76,75.42,0.00 162.63,76.52,-0.00 165.51,77.62,-0.01 169.83,78.12,-0.02"/>
    </edge>
    <edge id=":TL_8" function="internal">
        <lane id=":TL_8_0" index="0" speed="7.65" length="2.53" shape="155.43,78.12,0.01 157.88,78.75,0.01"/>
    </edge>
    <edge id=":TL_9" function="internal">
        <lane id=":TL_9_0" index="0" speed="7.65" length="10.35" shape="157.88,78.75,0.01 159.63,80.64,0.02 160.68,83.80,0.03 161.03,88.22,0.04"/>
    </edge>

    <edge id="AA2A" from="AA" to="A" priority="-1">
        <lane id="AA2A_0" index="0" speed="70.00" length="6.82" shape="144.71,89.63,0.06 151.53,89.63,0.06"/>
        <lane id="AA2A_1" index="1" speed="70.00" length="6.82" shape="144.71,92.83,0.06 151.53,92.83,0.06"/>
    </edge>
    <edge id="AB2A" from="AB" to="A" priority="-1">
        <lane id="AB2A_0" index="0" speed="70.00" length="6.82" shape="154.63,109.15,0.06 154.63,102.33,0.06"/>
        <lane id="AB2A_1" index="1" speed="70.00" length="6.82" shape="157.83,109.15,0.06 157.83,102.33,0.06"/>
    </edge>
    <edge id="AC2A" from="AC" to="A" priority="-1">
        <lane id="AC2A_0" index="0" speed="70.00" length="6.82" shape="174.15,99.23,0.06 167.33,99.23,0.06"/>
        <lane id="AC2A_1" index="1" speed="70.00" length="6.82" shape="174.15,96.03,0.06 167.33,96.03,0.06"/>
    </edge>
    <edge id="B2BA" from="B" to="BA" priority="-1">
        <lane id="B2BA_0" index="0" speed="40.00" length="29.80" shape="204.43,90.12,-0.06 204.43,119.91,-0.06"/>
        <lane id="B2BA_1" index="1" speed="40.00" length="29.80" shape="201.23,90.12,-0.06 201.23,119.91,-0.06"/>
    </edge>
    <edge id="B2BB" from="B" to="BB" priority="-1">
        <lane id="B2BB_0" index="0" speed="40.00" length="29.80" shape="210.03,74.92,-0.06 239.83,74.92,-0.06"/>
        <lane id="B2BB_1" index="1" speed="40.00" length="29.80" shape="210.03,78.12,-0.06 239.83,78.12,-0.06"/>
    </edge>
    <edge id="B2BC" from="B" to="BC" priority="-1">
        <lane id="B2BC_0" index="0" speed="40.00" length="29.80" shape="194.83,69.32,-0.06 194.83,39.52,-0.06"/>
        <lane id="B2BC_1" index="1" speed="40.00" length="29.80" shape="198.03,69.32,-0.06 198.03,39.52,-0.06"/>
    </edge>
    <edge id="B2TL" from="B" to="TL" priority="-1">
        <lane id="B2TL_0" index="0" speed="40.00" length="19.40" shape="189.23,84.52,-0.05 169.83,84.52,-0.02"/>
        <lane id="B2TL_1" index="1" speed="40.00" length="19.40" shape="189.23,81.32,-0.05 169.83,81.32,-0.02"/>
    </edge>
    <edge id="BA2B" from="BA" to="B" priority="-1">
        <lane id="BA2B_0" index="0" speed="40.00" length="29.80" shape="194.83,119.91,-0.06 194.83,90.12,-0.06"/>
        <lane id="BA2B_1" index="1" speed="40.00" length="29.80" shape="198.03,119.91,-0.06 198.03,90.12,-0.06"/>
    </edge>
    <edge id="BB2B" from="BB" to="B" priority="-1">
        <lane id="BB2B_0" index="0" speed="40.00" length="29.80" shape="239.83,84.52,-0.06 210.03,84.52,-0.06"/>
        <lane id="BB2B_1" index="1" speed="40.00" length="29.80" shape="239.83,81.32,-0.06 210.03,81.32,-0.06"/>
    </edge>
    <edge id="BC2B" from="BC" to="B" priority="-1">
        <lane id="BC2B_0" index="0" speed="40.00" length="29.80" shape="204.43,39.52,-0.06 204.43,69.32,-0.06"/>
        <lane id="BC2B_1" index="1" speed="40.00" length="29.80" shape="201.23,39.52,-0.06 201.23,69.32,-0.06"/>
    </edge>
    <edge id="C2CA" from="C" to="CA" priority="-1">
        <lane id="C2CA_0" index="0" speed="70.00" length="11.70" shape="167.33,55.31 179.03,55.31"/>
        <lane id="C2CA_1" index="1" speed="70.00" length="11.70" shape="167.33,58.51 179.03,58.51"/>
    </edge>
    <edge id="C2CB" from="C" to="CB" priority="-1">
        <lane id="C2CB_0" index="0" speed="70.00" length="11.70" shape="154.63,52.21 154.63,40.51"/>
        <lane id="C2CB_1" index="1" speed="70.00" length="11.70" shape="157.83,52.21 157.83,40.51"/>
    </edge>
    <edge id="C2CC" from="C" to="CC" priority="-1">
        <lane id="C2CC_0" index="0" speed="70.00" length="11.70" shape="151.53,64.91 139.83,64.91"/>
        <lane id="C2CC_1" index="1" speed="70.00" length="11.70" shape="151.53,61.71 139.83,61.71"/>
    </edge>
    <edge id="C2TL" from="C" to="TL" priority="-1">
        <lane id="C2TL_0" index="0" speed="70.00" length="0.20" shape="164.23,66.96 164.23,67.16"/>
        <lane id="C2TL_1" index="1" speed="70.00" length="0.20" shape="161.03,66.96 161.03,67.16"/>
    </edge>
    <edge id="D2DA" from="D" to="DA" priority="-1">
        <lane id="D2DA_0" index="0" speed="40.00" length="66.12" shape="71.72,66.12,0.17 71.72,0.00,0.17"/>
        <lane id="D2DA_1" index="1" speed="40.00" length="66.12" shape="74.92,66.12,0.17 74.92,0.00,0.17"/>
        <lane id="D2DA_2" index="2" speed="40.00" length="66.12" shape="78.12,66.12,0.17 78.12,0.00,0.17"/>
    </edge>
    <edge id="D2DB" from="D" to="DB" priority="-1">
        <lane id="D2DB_0" index="0" speed="40.00" length="66.12" shape="66.12,87.72,0.17 0.00,87.72,0.17"/>
        <lane id="D2DB_1" index="1" speed="40.00" length="66.12" shape="66.12,84.52,0.17 0.00,84.52,0.17"/>
        <lane id="D2DB_2" index="2" speed="40.00" length="66.12" shape="66.12,81.32,0.17 0.00,81.32,0.17"/>
    </edge>
    <edge id="D2DC" from="D" to="DC" priority="-1">
        <lane id="D2DC_0" index="0" speed="40.00" length="66.12" shape="87.72,93.32,0.17 87.72,159.43,0.17"/>
        <lane id="D2DC_1" index="1" speed="40.00" length="66.12" shape="84.52,93.32,0.17 84.52,159.43,0.17"/>
        <lane id="D2DC_2" index="2" speed="40.00" length="66.12" shape="81.32,93.32,0.17 81.32,159.43,0.17"/>
    </edge>
    <edge id="D2TL" from="D" to="TL" priority="-1">
        <lane id="D2TL_0" index="0" speed="40.00" length="62.12" shape="93.32,71.72,0.14 155.43,71.72,0.01"/>
        <lane id="D2TL_1" index="1" speed="40.00" length="62.12" shape="93.32,74.92,0.14 155.43,74.92,0.01"/>
        <lane id="D2TL_2" index="2" speed="40.00" length="62.12" shape="93.32,78.12,0.14 155.43,78.12,0.01"/>
    </edge>
    <edge id="DA2D" from="DA" to="D" priority="-1">
        <lane id="DA2D_0" index="0" speed="40.00" length="66.12" shape="84.52,0.00,0.17 84.52,66.12,0.17"/>
        <lane id="DA2D_1" index="1" speed="40.00" length="66.12" shape="81.32,0.00,0.17 81.32,66.12,0.17"/>
    </edge>
    <edge id="DB2D" from="DB" to="D" priority="-1">
        <lane id="DB2D_0" index="0" speed="40.00" length="66.12" shape="0.00,74.92,0.17 66.12,74.92,0.17"/>
        <lane id="DB2D_1" index="1" speed="40.00" length="66.12" shape="0.00,78.12,0.17 66.12,78.12,0.17"/>
    </edge>
    <edge id="DC2D" from="DC" to="D" priority="-1">
        <lane id="DC2D_0" index="0" speed="40.00" length="66.12" shape="74.92,159.43,0.17 74.92,93.32,0.17"/>
        <lane id="DC2D_1" index="1" speed="40.00" length="66.12" shape="78.12,159.43,0.17 78.12,93.32,0.17"/>
    </edge>
    <edge id="TL2A" from="TL" to="A" priority="-1">
        <lane id="TL2A_0" index="0" speed="70.00" length="0.20" shape="164.23,88.22,0.04 164.23,88.42,0.04"/>
        <lane id="TL2A_1" index="1" speed="70.00" length="0.20" shape="161.03,88.22,0.04 161.03,88.42,0.04"/>
    </edge>
    <edge id="TL2B" from="TL" to="B" priority="-1">
        <lane id="TL2B_0" index="0" speed="40.00" length="19.40" shape="169.83,74.92,-0.02 189.23,74.92,-0.05"/>
        <lane id="TL2B_1" index="1" speed="40.00" length="19.40" shape="169.83,78.12,-0.02 189.23,78.12,-0.05"/>
    </edge>
    <edge id="TL2D" from="TL" to="D" priority="-1">
        <lane id="TL2D_0" index="0" speed="40.00" length="62.12" shape="155.43,84.52,0.01 93.32,84.52,0.14"/>
        <lane id="TL2D_1" index="1" speed="40.00" length="62.12" shape="155.43,81.32,0.01 93.32,81.32,0.14"/>
    </edge>

    <tlLogic id="B" type="static" programID="0" offset="0">
        <phase duration="37" state="GGGgrrrrGGGgrrrr"/>
        <phase duration="8"  state="yyyyrrrryyyyrrrr"/>
        <phase duration="37" state="rrrrGGGgrrrrGGGg"/>
        <phase duration="8"  state="rrrryyyyrrrryyyy"/>
    </tlLogic>
    <tlLogic id="BA" type="static" programID="0" offset="0">
        <phase duration="77" state="G"/>
        <phase duration="8"  state="y"/>
        <phase duration="5"  state="r"/>
    </tlLogic>
    <tlLogic id="BB" type="static" programID="0" offset="0">
        <phase duration="77" state="G"/>
        <phase duration="8"  state="y"/>
        <phase duration="5"  state="r"/>
    </tlLogic>
    <tlLogic id="BC" type="static" programID="0" offset="0">
        <phase duration="77" state="G"/>
        <phase duration="8"  state="y"/>
        <phase duration="5"  state="r"/>
    </tlLogic>
    <tlLogic id="D" type="static" programID="0" offset="0">
        <phase duration="37" state="GGGgrrrrGGGgrrrr"/>
        <phase duration="8"  state="yyyyrrrryyyyrrrr"/>
        <phase duration="37" state="rrrrGGGgrrrrGGGg"/>
        <phase duration="8"  state="rrrryyyyrrrryyyy"/>
    </tlLogic>
    <tlLogic id="DA" type="static" programID="0" offset="0">
        <phase duration="77" state="G"/>
        <phase duration="8"  state="y"/>
        <phase duration="5"  state="r"/>
    </tlLogic>
    <tlLogic id="DB" type="static" programID="0" offset="0">
        <phase duration="77" state="G"/>
        <phase duration="8"  state="y"/>
        <phase duration="5"  state="r"/>
    </tlLogic>
    <tlLogic id="DC" type="static" programID="0" offset="0">
        <phase duration="77" state="G"/>
        <phase duration="8"  state="y"/>
        <phase duration="5"  state="r"/>
    </tlLogic>
    <tlLogic id="TL" type="static" programID="0" offset="0">
        <phase duration="22" state="GGGrrrGGr"/>
        <phase duration="13" state="yyyrrryyr"/>
        <phase duration="6"  state="rrrrrrGGG"/>
        <phase duration="13" state="rrrrrryyy"/>
        <phase duration="23" state="srrGGGrrr"/>
        <phase duration="13" state="srryyyrrr"/>
    </tlLogic>

    <junction id="A" type="dead_end" x="159.43" y="94.43" z="0.06" incLanes="AB2A_0 AB2A_1 AC2A_0 AC2A_1 TL2A_0 TL2A_1 AA2A_0 AA2A_1" intLanes="" shape="153.03,102.33,0.06 159.43,102.33,0.06 160.31,101.50,0.06 161.41,101.21,0.06 162.94,101.00,0.06 164.92,100.88,0.06 167.33,100.83,0.06 167.33,94.43,0.06 166.50,93.56,0.06 166.21,92.46,0.06 166.00,90.92,0.06 165.87,88.95,0.06 165.83,86.53,0.06 159.43,86.53,0.06 158.55,87.37,0.06 157.46,87.66,0.06 155.92,87.87,0.06 153.95,87.99,0.06 151.53,88.03,0.06 151.53,94.43,0.06 152.37,95.31,0.06 152.66,96.41,0.06 152.87,97.94,0.06 152.99,99.92,0.06"/>
    <junction id="AA" type="dead_end" x="144.71" y="94.43" z="0.06" incLanes="" intLanes="" shape="144.71,94.43,0.06 144.71,88.03,0.06"/>
    <junction id="AB" type="dead_end" x="159.43" y="109.15" z="0.06" incLanes="" intLanes="" shape="159.43,109.15,0.06 153.03,109.15,0.06"/>
    <junction id="AC" type="dead_end" x="174.15" y="94.43" z="0.06" incLanes="" intLanes="" shape="174.15,94.43,0.06 174.15,100.83,0.06"/>
    <junction id="B" type="traffic_light" x="199.63" y="79.72" z="-0.06" incLanes="BA2B_0 BA2B_1 BB2B_0 BB2B_1 BC2B_0 BC2B_1 TL2B_0 TL2B_1" intLanes=":B_0_0 :B_1_0 :B_1_1 :B_16_0 :B_4_0 :B_5_0 :B_5_1 :B_17_0 :B_8_0 :B_9_0 :B_9_1 :B_18_0 :B_12_0 :B_13_0 :B_13_1 :B_19_0" shape="193.23,90.12,-0.06 206.03,90.12,-0.06 206.48,87.89,-0.06 207.03,87.12,-0.06 207.81,86.56,-0.06 208.81,86.23,-0.06 210.03,86.12,-0.06 210.03,73.32,-0.06 207.81,72.87,-0.06 207.03,72.32,-0.06 206.48,71.54,-0.06 206.14,70.54,-0.06 206.03,69.32,-0.06 193.23,69.32,-0.06 192.79,71.54,-0.06 192.23,72.32,-0.06 191.45,72.87,-0.06 190.45,73.20,-0.06 189.23,73.32,-0.06 189.23,86.12,-0.06 191.45,86.56,-0.06 192.23,87.12,-0.06 192.79,87.89,-0.06 193.12,88.89,-0.06">
        <request index="0"  response="0000000000000000" foes="0000000001100000" cont="0"/>
        <request index="1"  response="1000000010000000" foes="1111100011100000" cont="0"/>
        <request index="2"  response="1000000010000000" foes="1111100011100000" cont="0"/>
        <request index="3"  response="1000011010000000" foes="1110011011100000" cont="1"/>
        <request index="4"  response="0000011000000000" foes="0000011000000000" cont="0"/>
        <request index="5"  response="0000111000001111" foes="1000111000001111" cont="0"/>
        <request index="6"  response="0000111000001111" foes="1000111000001111" cont="0"/>
        <request index="7"  response="0110111000001110" foes="0110111000001110" cont="1"/>
        <request index="8"  response="0000000000000000" foes="0110000000000000" cont="0"/>
        <request index="9"  response="1000000010000000" foes="1110000011111000" cont="0"/>
        <request index="10" response="1000000010000000" foes="1110000011111000" cont="0"/>
        <request index="11" response="1000000010000110" foes="1110000011100110" cont="1"/>
        <request index="12" response="0000000000000110" foes="0000000000000110" cont="0"/>
        <request index="13" response="0000111100001110" foes="0000111110001110" cont="0"/>
        <request index="14" response="0000111100001110" foes="0000111110001110" cont="0"/>
        <request index="15" response="0000111001101110" foes="0000111001101110" cont="1"/>
    </junction>
    <junction id="BA" type="traffic_light" x="199.63" y="119.91" z="-0.06" incLanes="B2BA_0 B2BA_1" intLanes=":BA_0_0" shape="199.63,119.91,-0.06 206.03,119.91,-0.06 199.63,119.91,-0.06">
        <request index="0" response="0" foes="0" cont="0"/>
    </junction>
    <junction id="BB" type="traffic_light" x="239.83" y="79.72" z="-0.06" incLanes="B2BB_0 B2BB_1" intLanes=":BB_0_0" shape="239.83,79.72,-0.06 239.83,73.32,-0.06 239.83,79.72,-0.06">
        <request index="0" response="0" foes="0" cont="0"/>
    </junction>
    <junction id="BC" type="traffic_light" x="199.63" y="39.52" z="-0.06" incLanes="B2BC_0 B2BC_1" intLanes=":BC_0_0" shape="199.63,39.52,-0.06 193.23,39.52,-0.06 199.63,39.52,-0.06">
        <request index="0" response="0" foes="0" cont="0"/>
    </junction>
    <junction id="C" type="dead_end" x="159.43" y="60.11" incLanes="" intLanes="" shape="159.43,68.01 165.83,68.01 165.87,65.60 166.00,63.62 166.21,62.09 166.50,60.99 166.87,60.33 167.33,60.11 167.33,53.71 164.92,53.67 162.94,53.55 161.41,53.34 160.31,53.05 159.65,52.67 159.43,52.21 153.03,52.21 152.99,54.63 152.87,56.60 152.66,58.14 152.37,59.24 151.99,59.89 151.53,60.11 151.53,66.51 153.95,66.56 155.92,66.68 157.46,66.89 158.55,67.18 159.21,67.56"/>
    <junction id="CA" type="dead_end" x="179.03" y="60.11" incLanes="C2CA_0 C2CA_1" intLanes="" shape="179.03,53.71 179.03,60.11"/>
    <junction id="CB" type="dead_end" x="159.43" y="40.51" incLanes="C2CB_0 C2CB_1" intLanes="" shape="153.03,40.51 159.43,40.51"/>
    <junction id="CC" type="dead_end" x="139.83" y="60.11" incLanes="C2CC_0 C2CC_1" intLanes="" shape="139.83,66.51 139.83,60.11"/>
    <junction id="D" type="traffic_light" x="79.72" y="79.72" z="0.17" incLanes="DC2D_0 DC2D_1 TL2D_0 TL2D_1 DA2D_0 DA2D_1 DB2D_0 DB2D_1" intLanes=":D_0_0 :D_1_0 :D_1_1 :D_16_0 :D_4_0 :D_5_0 :D_5_1 :D_17_0 :D_8_0 :D_9_0 :D_9_1 :D_18_0 :D_12_0 :D_13_0 :D_13_1 :D_19_0" shape="73.32,93.32,0.17 89.32,93.32,0.17 89.43,91.12,0.17 89.76,89.32,0.17 90.32,87.92,0.17 91.09,86.92,0.17 92.09,86.32,0.17 93.32,86.12,0.17 93.32,70.12,0.17 91.12,70.00,0.17 89.32,69.67,0.17 87.92,69.12,0.17 86.92,68.34,0.17 86.32,67.34,0.17 86.12,66.12,0.17 70.12,66.12,0.17 70.00,68.32,0.17 69.67,70.12,0.17 69.12,71.52,0.17 68.34,72.52,0.17 67.34,73.12,0.17 66.12,73.32,0.17 66.12,89.32,0.17 68.32,89.43,0.17 70.12,89.76,0.17 71.52,90.32,0.17 72.52,91.09,0.17 73.12,92.09,0.17">
        <request index="0"  response="0000000000000000" foes="0000000001100000" cont="0"/>
        <request index="1"  response="1000000000000000" foes="1111100001100000" cont="0"/>
        <request index="2"  response="1000000000000000" foes="1111100001100000" cont="0"/>
        <request index="3"  response="1000011010000000" foes="1000011011100000" cont="1"/>
        <request index="4"  response="0000011000000000" foes="0000011000000000" cont="0"/>
        <request index="5"  response="0000011000001111" foes="1000011000001111" cont="0"/>
        <request index="6"  response="0000011000001111" foes="1000011000001111" cont="0"/>
        <request index="7"  response="0110111000001000" foes="0110111000001000" cont="1"/>
        <request index="8"  response="0000000000000000" foes="0110000000000000" cont="0"/>
        <request index="9"  response="0000000010000000" foes="0110000011111000" cont="0"/>
        <request index="10" response="0000000010000000" foes="0110000011111000" cont="0"/>
        <request index="11" response="1000000010000110" foes="1110000010000110" cont="1"/>
        <request index="12" response="0000000000000110" foes="0000000000000110" cont="0"/>
        <request index="13" response="0000111100000110" foes="0000111110000110" cont="0"/>
        <request index="14" response="0000111100000110" foes="0000111110000110" cont="0"/>
        <request index="15" response="0000100001101110" foes="0000100001101110" cont="1"/>
    </junction>
    <junction id="DA" type="traffic_light" x="79.72" y="0.00" z="0.17" incLanes="D2DA_0 D2DA_1 D2DA_2" intLanes=":DA_0_0" shape="79.72,0.00,0.17 70.12,0.00,0.17 79.72,0.00,0.17">
        <request index="0" response="0" foes="0" cont="0"/>
    </junction>
    <junction id="DB" type="traffic_light" x="0.00" y="79.72" z="0.17" incLanes="D2DB_0 D2DB_1 D2DB_2" intLanes=":DB_0_0" shape="0.00,79.72,0.17 0.00,89.32,0.17 0.00,79.72,0.17">
        <request index="0" response="0" foes="0" cont="0"/>
    </junction>
    <junction id="DC" type="traffic_light" x="79.72" y="159.43" z="0.17" incLanes="D2DC_0 D2DC_1 D2DC_2" intLanes=":DC_0_0" shape="79.72,159.43,0.17 89.32,159.43,0.17 79.72,159.43,0.17">
        <request index="0" response="0" foes="0" cont="0"/>
    </junction>
    <junction id="TL" type="traffic_light_right_on_red" x="159.43" y="79.72" incLanes="B2TL_0 B2TL_1 C2TL_0 C2TL_1 D2TL_0 D2TL_1 D2TL_2" intLanes=":TL_0_0 :TL_1_0 :TL_1_1 :TL_3_0 :TL_4_0 :TL_4_1 :TL_6_0 :TL_6_1 :TL_9_0" shape="159.43,90.12 165.83,90.12 166.28,87.89 166.83,87.12 167.61,86.56 168.61,86.23 169.83,86.12 169.83,73.32 167.61,72.52 166.83,71.52 166.28,70.12 165.94,68.32 165.83,66.12 159.43,66.12 158.99,68.34 158.43,69.12 157.65,69.67 156.65,70.00 155.43,70.12 155.43,86.12 157.65,86.56 158.43,87.12 158.99,87.89 159.32,88.89">
        <request index="0" response="000001000" foes="000001000" cont="0"/>
        <request index="1" response="000111000" foes="100111000" cont="0"/>
        <request index="2" response="000111000" foes="100111000" cont="0"/>
        <request index="3" response="000000000" foes="011000111" cont="0"/>
        <request index="4" response="100000000" foes="111000110" cont="0"/>
        <request index="5" response="100000000" foes="111000110" cont="0"/>
        <request index="6" response="000111000" foes="000111000" cont="0"/>