<?xml version="1.0" encoding="UTF-8"?>

<!-- generated on 2022-10-11 17:11:01 by Eclipse SUMO netconvert Version 1.14.1
<configuration xmlns:xsi="http://www.w3.org/2001/XMLSchema-instance" xsi:noNamespaceSchemaLocation="http://sumo.dlr.de/xsd/netconvertConfiguration.xsd">

    <input>
        <node-files value="../data/salt-lake-city/nodes.nod.xml"/>
        <edge-files value="../data/salt-lake-city/edges.edg.xml"/>
        <connection-files value="../data/salt-lake-city/connections.con.xml"/>
    </input>

    <output>
        <output-file value="../data/salt-lake-city/sumo/net/202.net.xml"/>
    </output>

    <tls_building>
        <tls.minor-left.max-speed value="1"/>
    </tls_building>

    <report>
        <verbose value="true"/>
    </report>

</configuration>
-->

<net version="1.9" junctionCornerDetail="5" limitTurnSpeed="5.50" xmlns:xsi="http://www.w3.org/2001/XMLSchema-instance" xsi:noNamespaceSchemaLocation="http://sumo.dlr.de/xsd/net_file.xsd">

    <location netOffset="531.32,1062.65" convBoundary="0.00,0.00,1109.89,1593.62" origBoundary="-531.32,-1062.65,578.56,530.97" projParameter="!"/>

    <edge id=":A_0" function="internal">
        <lane id=":A_0_0" index="0" speed="6.51" length="9.03" shape="529.72,1335.33 529.37,1332.88 528.32,1331.13 526.57,1330.08 524.12,1329.73"/>
    </edge>
    <edge id=":A_1" function="internal">
        <lane id=":A_1_0" index="0" speed="40.00" length="14.40" shape="529.72,1335.33 529.72,1320.93"/>
    </edge>
    <edge id=":A_2" function="internal">
        <lane id=":A_2_0" index="0" speed="6.51" length="9.03" shape="538.52,1329.73 536.07,1330.08 534.32,1331.13 533.27,1332.88 532.92,1335.33"/>
    </edge>
    <edge id=":A_3" function="internal">
        <lane id=":A_3_0" index="0" speed="40.00" length="14.40" shape="538.52,1329.73 524.12,1329.73"/>
    </edge>
    <edge id=":A_4" function="internal">
        <lane id=":A_4_0" index="0" speed="6.51" length="9.03" shape="532.92,1320.93 533.27,1323.38 534.32,1325.13 536.07,1326.18 538.52,1326.53"/>
    </edge>
    <edge id=":A_5" function="internal">
        <lane id=":A_5_0" index="0" speed="40.00" length="14.40" shape="532.92,1320.93 532.92,1335.33"/>
    </edge>
    <edge id=":A_6" function="internal">
        <lane id=":A_6_0" index="0" speed="6.51" length="9.03" shape="524.12,1326.53 526.57,1326.18 528.32,1325.13 529.37,1323.38 529.72,1320.93"/>
    </edge>
    <edge id=":A_7" function="internal">
        <lane id=":A_7_0" index="0" speed="40.00" length="14.40" shape="524.12,1326.53 538.52,1326.53"/>
    </edge>
    <edge id=":AA_0" function="internal">
        <lane id=":AA_0_0" index="0" speed="3.65" length="4.67" shape="265.84,1329.73 264.64,1328.93 264.24,1328.13 264.64,1327.33 265.84,1326.53"/>
    </edge>
    <edge id=":AB_0" function="internal">
        <lane id=":AB_0_0" index="0" speed="3.65" length="4.67" shape="532.92,1593.62 532.12,1594.82 531.32,1595.22 530.52,1594.82 529.72,1593.62"/>
    </edge>
    <edge id=":AC_0" function="internal">
        <lane id=":AC_0_0" index="0" speed="3.65" length="4.67" shape="796.81,1326.53 798.01,1327.33 798.41,1328.13 798.01,1328.93 796.81,1329.73"/>
    </edge>
    <edge id=":B_0" function="internal">
        <lane id=":B_0_0" index="0" speed="6.51" length="9.03" shape="819.01,1069.85 818.66,1067.40 817.61,1065.65 815.86,1064.60 813.41,1064.25"/>
    </edge>
    <edge id=":B_1" function="internal">
        <lane id=":B_1_0" index="0" speed="40.00" length="14.40" shape="819.01,1069.85 819.01,1055.45"/>
    </edge>
    <edge id=":B_2" function="internal">
        <lane id=":B_2_0" index="0" speed="6.51" length="9.03" shape="827.81,1064.25 825.36,1064.60 823.61,1065.65 822.56,1067.40 822.21,1069.85"/>
    </edge>
    <edge id=":B_3" function="internal">
        <lane id=":B_3_0" index="0" speed="40.00" length="14.40" shape="827.81,1064.25 813.41,1064.25"/>
    </edge>
    <edge id=":B_4" function="internal">
        <lane id=":B_4_0" index="0" speed="6.51" length="9.03" shape="822.21,1055.45 822.56,1057.90 823.61,1059.65 825.36,1060.70 827.81,1061.05"/>
    </edge>
    <edge id=":B_5" function="internal">
        <lane id=":B_5_0" index="0" speed="40.00" length="14.40" shape="822.21,1055.45 822.21,1069.85"/>
    </edge>
    <edge id=":B_6" function="internal">
        <lane id=":B_6_0" index="0" speed="6.51" length="9.03" shape="813.41,1061.05 815.86,1060.70 817.61,1059.65 818.66,1057.90 819.01,1055.45"/>
    </edge>
    <edge id=":B_7" function="internal">
        <lane id=":B_7_0" index="0" speed="40.00" length="14.40" shape="813.41,1061.05 827.81,1061.05"/>
    </edge>
    <edge id=":BA_0" function="internal">
        <lane id=":BA_0_0" index="0" speed="3.65" length="4.67" shape="822.21,1351.93 821.41,1353.13 820.61,1353.53 819.81,1353.13 819.01,1351.93"/>
    </edge>
    <edge id=":BB_0" function="internal">
        <lane id=":BB_0_0" index="0" speed="3.65" length="4.67" shape="1109.89,1061.05 1111.09,1061.85 1111.49,1062.65 1111.09,1063.45 1109.89,1064.25"/>
    </edge>
    <edge id=":BC_0" function="internal">
        <lane id=":BC_0_0" index="0" speed="3.65" length="4.67" shape="819.01,773.37 819.81,772.17 820.61,771.77 821.41,772.17 822.21,773.37"/>
    </edge>
    <edge id=":C_0" function="internal">
        <lane id=":C_0_0" index="0" speed="6.51" length="9.03" shape="529.72,538.52 529.37,536.07 528.32,534.32 526.57,533.27 524.12,532.92"/>
    </edge>
    <edge id=":C_1" function="internal">
        <lane id=":C_1_0" index="0" speed="40.00" length="14.40" shape="529.72,538.52 529.72,524.12"/>
    </edge>
    <edge id=":C_2" function="internal">
        <lane id=":C_2_0" index="0" speed="6.51" length="9.03" shape="538.52,532.92 536.07,533.27 534.32,534.32 533.27,536.07 532.92,538.52"/>
    </edge>
    <edge id=":C_3" function="internal">
        <lane id=":C_3_0" index="0" speed="40.00" length="14.40" shape="538.52,532.92 524.12,532.92"/>
    </edge>
    <edge id=":C_4" function="internal">
        <lane id=":C_4_0" index="0" speed="6.51" length="9.03" shape="532.92,524.12 533.27,526.57 534.32,528.32 536.07,529.37 538.52,529.72"/>
    </edge>
    <edge id=":C_5" function="internal">
        <lane id=":C_5_0" index="0" speed="40.00" length="14.40" shape="532.92,524.12 532.92,538.52"/>
    </edge>
    <edge id=":C_6" function="internal">
        <lane id=":C_6_0" index="0" speed="6.51" length="9.03" shape="524.12,529.72 526.57,529.37 528.32,528.32 529.37,526.57 529.72,524.12"/>
    </edge>
    <edge id=":C_7" function="internal">
        <lane id=":C_7_0" index="0" speed="40.00" length="14.40" shape="524.12,529.72 538.52,529.72"/>
    </edge>
    <edge id=":CA_0" function="internal">
        <lane id=":CA_0_0" index="0" speed="3.65" length="4.67" shape="1062.65,529.72 1063.85,530.52 1064.25,531.32 1063.85,532.12 1062.65,532.92"/>
    </edge>
    <edge id=":CB_0" function="internal">
        <lane id=":CB_0_0" index="0" speed="3.65" length="4.67" shape="529.72,-0.00 530.52,-1.20 531.32,-1.60 532.12,-1.20 532.92,0.00"/>
    </edge>
    <edge id=":CC_0" function="internal">
        <lane id=":CC_0_0" index="0" speed="3.65" length="4.67" shape="-0.00,532.92 -1.20,532.12 -1.60,531.32 -1.20,530.52 0.00,529.72"/>
    </edge>
    <edge id=":D_0" function="internal">
        <lane id=":D_0_0" index="0" speed="6.51" length="9.03" shape="406.23,1069.85 405.88,1067.40 404.83,1065.65 403.08,1064.60 400.63,1064.25"/>
    </edge>
    <edge id=":D_1" function="internal">
        <lane id=":D_1_0" index="0" speed="40.00" length="14.40" shape="406.23,1069.85 406.23,1055.45"/>
    </edge>
    <edge id=":D_2" function="internal">
        <lane id=":D_2_0" index="0" speed="6.51" length="9.03" shape="415.03,1064.25 412.58,1064.60 410.83,1065.65 409.78,1067.40 409.43,1069.85"/>
    </edge>
    <edge id=":D_3" function="internal">
        <lane id=":D_3_0" index="0" speed="40.00" length="14.40" shape="415.03,1064.25 400.63,1064.25"/>
    </edge>
    <edge id=":D_4" function="internal">
        <lane id=":D_4_0" index="0" speed="6.51" length="9.03" shape="409.43,1055.45 409.78,1057.90 410.83,1059.65 412.58,1060.70 415.03,1061.05"/>
    </edge>
    <edge id=":D_5" function="internal">
        <lane id=":D_5_0" index="0" speed="40.00" length="14.40" shape="409.43,1055.45 409.43,1069.85"/>
    </edge>
    <edge id=":D_6" function="internal">
        <lane id=":D_6_0" index="0" speed="6.51" length="9.03" shape="400.63,1061.05 403.08,1060.70 404.83,1059.65 405.88,1057.90 406.23,1055.45"/>
    </edge>
    <edge id=":D_7" function="internal">
        <lane id=":D_7_0" index="0" speed="40.00" length="14.40" shape="400.63,1061.05 415.03,1061.05"/>
    </edge>
    <edge id=":DA_0" function="internal">
        <lane id=":DA_0_0" index="0" speed="3.65" length="4.67" shape="406.23,939.15 407.03,937.95 407.83,937.55 408.63,937.95 409.43,939.15"/>
    </edge>
    <edge id=":DB_0" function="internal">
        <lane id=":DB_0_0" index="0" speed="3.65" length="4.67" shape="284.33,1064.25 283.13,1063.45 282.73,1062.65 283.13,1061.85 284.33,1061.05"/>
    </edge>
    <edge id=":DC_0" function="internal">
        <lane id=":DC_0_0" index="0" speed="3.65" length="4.67" shape="409.43,1186.15 408.63,1187.35 407.83,1187.75 407.03,1187.35 406.23,1186.15"/>
    </edge>
    <edge id=":TL_0" function="internal">
        <lane id=":TL_0_0" index="0" speed="6.51" length="9.03" shape="529.72,1069.85 529.37,1067.40 528.32,1065.65 526.57,1064.60 524.12,1064.25"/>
    </edge>
    <edge id=":TL_1" function="internal">
        <lane id=":TL_1_0" index="0" speed="40.00" length="14.40" shape="529.72,1069.85 529.72,1055.45"/>
    </edge>
    <edge id=":TL_2" function="internal">
        <lane id=":TL_2_0" index="0" speed="6.51" length="9.03" shape="538.52,1064.25 536.07,1064.60 534.32,1065.65 533.27,1067.40 532.92,1069.85"/>
    </edge>
    <edge id=":TL_3" function="internal">
        <lane id=":TL_3_0" index="0" speed="40.00" length="14.40" shape="538.52,1064.25 524.12,1064.25"/>
    </edge>
    <edge id=":TL_4" function="internal">
        <lane id=":TL_4_0" index="0" speed="6.51" length="9.03" shape="532.92,1055.45 533.27,1057.90 534.32,1059.65 536.07,1060.70 538.52,1061.05"/>
    </edge>
    <edge id=":TL_5" function="internal">
        <lane id=":TL_5_0" index="0" speed="40.00" length="14.40" shape="532.92,1055.45 532.92,1069.85"/>
    </edge>
    <edge id=":TL_6" function="internal">
        <lane id=":TL_6_0" index="0" speed="6.51" length="9.03" shape="524.12,1061.05 526.57,1060.70 528.32,1059.65 529.37,1057.90 529.72,1055.45"/>
    </edge>
    <edge id=":TL_7" function="internal">
        <lane id=":TL_7_0" index="0" speed="40.00" length="14.40" shape="524.12,1061.05 538.52,1061.05"/>
    </edge>

    <edge id="A2AA" from="A" to="AA" priority="-1">
        <lane id="A2AA_0" index="0" speed="40.00" length="258.28" shape="524.12,1329.73 265.84,1329.73"/>
    </edge>
    <edge id="A2AB" from="A" to="AB" priority="-1">
        <lane id="A2AB_0" index="0" speed="40.00" length="258.28" shape="532.92,1335.33 532.92,1593.62"/>
    </edge>
    <edge id="A2AC" from="A" to="AC" priority="-1">
        <lane id="A2AC_0" index="0" speed="40.00" length="258.28" shape="538.52,1326.53 796.81,1326.53"/>
    </edge>
    <edge id="A2TL" from="A" to="TL" priority="-1">
        <lane id="A2TL_0" index="0" speed="40.00" length="251.08" shape="529.72,1320.93 529.72,1069.85"/>
    </edge>
    <edge id="AA2A" from="AA" to="A" priority="-1">
        <lane id="AA2A_0" index="0" speed="40.00" length="258.28" shape="265.84,1326.53 524.12,1326.53"/>
    </edge>
    <edge id="AB2A" from="AB" to="A" priority="-1">
        <lane id="AB2A_0" index="0" speed="40.00" length="258.28" shape="529.72,1593.62 529.72,1335.33"/>
    </edge>
    <edge id="AC2A" from="AC" to="A" priority="-1">
        <lane id="AC2A_0" index="0" speed="40.00" length="258.28" shape="796.81,1329.73 538.52,1329.73"/>
    </edge>
    <edge id="B2BA" from="B" to="BA" priority="-1">
        <lane id="B2BA_0" index="0" speed="40.00" length="282.08" shape="822.21,1069.85 822.21,1351.93"/>
    </edge>
    <edge id="B2BB" from="B" to="BB" priority="-1">
        <lane id="B2BB_0" index="0" speed="40.00" length="282.08" shape="827.81,1061.05 1109.89,1061.05"/>
    </edge>
    <edge id="B2BC" from="B" to="BC" priority="-1">
        <lane id="B2BC_0" index="0" speed="40.00" length="282.08" shape="819.01,1055.45 819.01,773.37"/>
    </edge>
    <edge id="B2TL" from="B" to="TL" priority="-1">
        <lane id="B2TL_0" index="0" speed="40.00" length="274.88" shape="813.41,1064.25 538.52,1064.25"/>
    </edge>
    <edge id="BA2B" from="BA" to="B" priority="-1">
        <lane id="BA2B_0" index="0" speed="40.00" length="282.08" shape="819.01,1351.93 819.01,1069.85"/>
    </edge>
    <edge id="BB2B" from="BB" to="B" priority="-1">
        <lane id="BB2B_0" index="0" speed="40.00" length="282.08" shape="1109.89,1064.25 827.81,1064.25"/>
    </edge>
    <edge id="BC2B" from="BC" to="B" priority="-1">
        <lane id="BC2B_0" index="0" speed="40.00" length="282.08" shape="822.21,773.37 822.21,1055.45"/>
    </edge>
    <edge id="C2CA" from="C" to="CA" priority="-1">
        <lane id="C2CA_0" index="0" speed="40.00" length="524.12" shape="538.52,529.72 1062.65,529.72"/>
    </edge>
    <edge id="C2CB" from="C" to="CB" priority="-1">
        <lane id="C2CB_0" index="0" speed="40.00" length="524.12" shape="529.72,524.12 529.72,-0.00"/>
    </edge>
    <edge id="C2CC" from="C" to="CC" priority="-1">
        <lane id="C2CC_0" index="0" speed="40.00" length="524.12" shape="524.12,532.92 -0.00,532.92"/>
    </edge>
    <edge id="C2TL" from="C" to="TL" priority="-1">
        <lane id="C2TL_0" index="0" speed="40.00" length="516.92" shape="532.92,538.52 532.92,1055.45"/>
    </edge>
    <edge id="CA2C" from="CA" to="C" priority="-1">
        <lane id="CA2C_0" index="0" speed="40.00" length="524.12" shape="1062.65,532.92 538.52,532.92"/>
    </edge>
    <edge id="CB2C" from="CB" to="C" priority="-1">
        <lane id="CB2C_0" index="0" speed="40.00" length="524.12" shape="532.92,0.00 532.92,524.12"/>
    </edge>
    <edge id="CC2C" from="CC" to="C" priority="-1">
        <lane id="CC2C_0" index="0" speed="40.00" length="524.12" shape="0.00,529.72 524.12,529.72"/>
    </edge>
    <edge id="D2DA" from="D" to="DA" priority="-1">
        <lane id="D2DA_0" index="0" speed="40.00" length="116.30" shape="406.23,1055.45 406.23,939.15"/>
    </edge>
    <edge id="D2DB" from="D" to="DB" priority="-1">
        <lane id="D2DB_0" index="0" speed="40.00" length="116.30" shape="400.63,1064.25 284.33,1064.25"/>
    </edge>
    <edge id="D2DC" from="D" to="DC" priority="-1">
        <lane id="D2DC_0" index="0" speed="40.00" length="116.30" shape="409.43,1069.85 409.43,1186.15"/>
    </edge>
    <edge id="D2TL" from="D" to="TL" priority="-1">
        <lane id="D2TL_0" index="0" speed="40.00" length="109.10" shape="415.03,1061.05 524.12,1061.05"/>
    </edge>
    <edge id="DA2D" from="DA" to="D" priority="-1">
        <lane id="DA2D_0" index="0" speed="40.00" length="116.30" shape="409.43,939.15 409.43,1055.45"/>
    </edge>
    <edge id="DB2D" from="DB" to="D" priority="-1">
        <lane id="DB2D_0" index="0" speed="40.00" length="116.30" shape="284.33,1061.05 400.63,1061.05"/>
    </edge>
    <edge id="DC2D" from="DC" to="D" priority="-1">
        <lane id="DC2D_0" index="0" speed="40.00" length="116.30" shape="406.23,1186.15 406.23,1069.85"/>
    </edge>
    <edge id="TL2A" from="TL" to="A" priority="-1">
        <lane id="TL2A_0" index="0" speed="40.00" length="251.08" shape="532.92,1069.85 532.92,1320.93"/>
    </edge>
    <edge id="TL2B" from="TL" to="B" priority="-1">
        <lane id="TL2B_0" index="0" speed="40.00" length="274.88" shape="538.52,1061.05 813.41,1061.05"/>
    </edge>
    <edge id="TL2C" from="TL" to="C" priority="-1">
        <lane id="TL2C_0" index="0" speed="40.00" length="516.92" shape="529.72,1055.45 529.72,538.52"/>
    </edge>
    <edge id="TL2D" from="TL" to="D" priority="-1">
        <lane id="TL2D_0" index="0" speed="40.00" length="109.10" shape="524.12,1064.25 415.03,1064.25"/>
    </edge>

    <tlLogic id="A" type="static" programID="0" offset="0">
        <phase duration="37" state="GGrrGGrr"/>
        <phase duration="8"  state="yyrryyrr"/>
        <phase duration="37" state="rrGGrrGG"/>
        <phase duration="8"  state="rryyrryy"/>
    </tlLogic>
    <tlLogic id="AA" type="static" programID="0" offset="0">
        <phase duration="77" state="G"/>
        <phase duration="8"  state="y"/>
        <phase duration="5"  state="r"/>
    </tlLogic>
    <tlLogic id="AB" type="static" programID="0" offset="0">
        <phase duration="77" state="G"/>
        <phase duration="8"  state="y"/>
        <phase duration="5"  state="r"/>
    </tlLogic>
    <tlLogic id="AC" type="static" programID="0" offset="0">
        <phase duration="77" state="G"/>
        <phase duration="8"  state="y"/>
        <phase duration="5"  state="r"/>
    </tlLogic>
    <tlLogic id="B" type="static" programID="0" offset="0">
        <phase duration="37" state="GGrrGGrr"/>
        <phase duration="8"  state="yyrryyrr"/>
        <phase duration="37" state="rrGGrrGG"/>
        <phase duration="8"  state="rryyrryy"/>
    </tlLogic>
    <tlLogic id="BA" type="static" programID="0" offset="0">
        <phase duration="77" state="G"/>
        <phase duration="8"  state="y"/>
        <phase duration="5"  state="r"/>
    </tlLogic>
    <tlLogic id="BB" type="static" programID="0" offset="0">
        <phase duration="77" state="G"/>
        <phase duration="8"  state="y"/>
        <phase duration="5"  state="r"/>
    </tlLogic>
    <tlLogic id="BC" type="static" programID="0" offset="0">
        <phase duration="77" state="G"/>
        <phase duration="8"  state="y"/>
        <phase duration="5"  state="r"/>
    </tlLogic>
    <tlLogic id="C" type="static" programID="0" offset="0">
        <phase duration="37" state="GGrrGGrr"/>
        <phase duration="8"  state="yyrryyrr"/>
        <phase duration="37" state="rrGGrrGG"/>
        <phase duration="8"  state="rryyrryy"/>
    </tlLogic>
    <tlLogic id="CA" type="static" programID="0" offset="0">
        <phase duration="77" state="G"/>
        <phase duration="8"  state="y"/>
        <phase duration="5"  state="r"/>
    </tlLogic>
    <tlLogic id="CB" type="static" programID="0" offset="0">
        <phase duration="77" state="G"/>
        <phase duration="8"  state="y"/>
        <phase duration="5"  state="r"/>
    </tlLogic>
    <tlLogic id="CC" type="static" programID="0" offset="0">
        <phase duration="77" state="G"/>
        <phase duration="8"  state="y"/>
        <phase duration="5"  state="r"/>
    </tlLogic>
    <tlLogic id="D" type="static" programID="0" offset="0">
        <phase duration="37" state="GGrrGGrr"/>
        <phase duration="8"  state="yyrryyrr"/>
        <phase duration="37" state="rrGGrrGG"/>
        <phase duration="8"  state="rryyrryy"/>
    </tlLogic>
    <tlLogic id="DA" type="static" programID="0" offset="0">
        <phase duration="77" state="G"/>
        <phase duration="8"  state="y"/>
        <phase duration="5"  state="r"/>
    </tlLogic>
    <tlLogic id="DB" type="static" programID="0" offset="0">
        <phase duration="77" state="G"/>
        <phase duration="8"  state="y"/>
        <phase duration="5"  state="r"/>
    </tlLogic>
    <tlLogic id="DC" type="static" programID="0" offset="0">
        <phase duration="77" state="G"/>
        <phase duration="8"  state="y"/>
        <phase duration="5"  state="r"/>
    </tlLogic>
    <tlLogic id="TL" type="static" programID="0" offset="0">
        <phase duration="37" state="GGsrGGsr"/>
        <phase duration="8"  state="yysryysr"/>
        <phase duration="37" state="srGGsrGG"/>
        <phase duration="8"  state="sryysryy"/>
    </tlLogic>

    <junction id="A" type="traffic_light" x="531.32" y="1328.13" incLanes="AB2A_0 AC2A_0 TL2A_0 AA2A_0" intLanes=":A_0_0 :A_1_0 :A_2_0 :A_3_0 :A_4_0 :A_5_0 :A_6_0 :A_7_0" shape="528.12,1335.33 534.52,1335.33 534.97,1333.11 535.52,1332.33 536.30,1331.78 537.30,1331.44 538.52,1331.33 538.52,1324.93 536.30,1324.49 535.52,1323.93 534.97,1323.15 534.64,1322.15 534.52,1320.93 528.12,1320.93 527.68,1323.15 527.12,1323.93 526.35,1324.49 525.35,1324.82 524.12,1324.93 524.12,1331.33 526.35,1331.78 527.12,1332.33 527.68,1333.11 528.01,1334.11">
        <request index="0" response="00000000" foes="00001000" cont="0"/>
        <request index="1" response="00000000" foes="11001000" cont="0"/>
        <request index="2" response="00100000" foes="00100000" cont="0"/>
        <request index="3" response="00100011" foes="00100011" cont="0"/>
        <request index="4" response="00000000" foes="10000000" cont="0"/>
        <request index="5" response="00000000" foes="10001100" cont="0"/>
        <request index="6" response="00000010" foes="00000010" cont="0"/>
        <request index="7" response="00110010" foes="00110010" cont="0"/>
    </junction>
    <junction id="AA" type="traffic_light" x="265.84" y="1328.13" incLanes="A2AA_0" intLanes=":AA_0_0" shape="265.84,1328.13 265.84,1331.33 265.84,1328.13">
        <request index="0" response="0" foes="0" cont="0"/>
    </junction>
    <junction id="AB" type="traffic_light" x="531.32" y="1593.62" incLanes="A2AB_0" intLanes=":AB_0_0" shape="531.32,1593.62 534.52,1593.62 531.32,1593.62">
        <request index="0" response="0" foes="0" cont="0"/>
    </junction>
    <junction id="AC" type="traffic_light" x="796.81" y="1328.13" incLanes="A2AC_0" intLanes=":AC_0_0" shape="796.81,1328.13 796.81,1324.93 796.81,1328.13">
        <request index="0" response="0" foes="0" cont="0"/>
    </junction>
    <junction id="B" type="traffic_light" x="820.61" y="1062.65" incLanes="BA2B_0 BB2B_0 BC2B_0 TL2B_0" intLanes=":B_0_0 :B_1_0 :B_2_0 :B_3_0 :B_4_0 :B_5_0 :B_6_0 :B_7_0" shape="817.41,1069.85 823.81,1069.85 824.25,1067.63 824.81,1066.85 825.58,1066.29 826.58,1065.96 827.81,1065.85 827.81,1059.45 825.58,1059.00 824.81,1058.45 824.25,1057.67 823.92,1056.67 823.81,1055.45 817.41,1055.45 816.96,1057.67 816.41,1058.45 815.63,1059.00 814.63,1059.34 813.41,1059.45 813.41,1065.85 815.63,1066.29 816.41,1066.85 816.96,1067.63 817.29,1068.63">
        <request index="0" response="00000000" foes="00001000" cont="0"/>
        <request index="1" response="00000000" foes="11001000" cont="0"/>
        <request index="2" response="00100000" foes="00100000" cont="0"/>
        <request index="3" response="00100011" foes="00100011" cont="0"/>
        <request index="4" response="00000000" foes="10000000" cont="0"/>
        <request index="5" response="00000000" foes="10001100" cont="0"/>
        <request index="6" response="00000010" foes="00000010" cont="0"/>
        <request index="7" response="00110010" foes="00110010" cont="0"/>
    </junction>
    <junction id="BA" type="traffic_light" x="820.61" y="1351.93" incLanes="B2BA_0" intLanes=":BA_0_0" shape="820.61,1351.93 823.81,1351.93 820.61,1351.93">
        <request index="0" response="0" foes="0" cont="0"/>
    </junction>
    <junction id="BB" type="traffic_light" x="1109.89" y="1062.65" incLanes="B2BB_0" intLanes=":BB_0_0" shape="1109.89,1062.65 1109.89,1059.45 1109.89,1062.65">
        <request index="0" response="0" foes="0" cont="0"/>
    </junction>
    <junction id="BC" type="traffic_light" x="820.61" y="773.37" incLanes="B2BC_0" intLanes=":BC_0_0" shape="820.61,773.37 817.41,773.37 820.61,773.37">
        <request index="0" response="0" foes="0" cont="0"/>
    </junction>
    <junction id="C" type="traffic_light" x="531.32" y="531.32" incLanes="TL2C_0 CA2C_0 CB2C_0 CC2C_0" intLanes=":C_0_0 :C_1_0 :C_2_0 :C_3_0 :C_4_0 :C_5_0 :C_6_0 :C_7_0" shape="528.12,538.52 534.52,538.52 534.97,536.30 535.52,535.52 536.30,534.97 537.30,534.64 538.52,534.52 538.52,528.12 536.30,527.68 535.52,527.12 534.97,526.35 534.64,525.35 534.52,524.12 528.12,524.12 527.68,526.35 527.12,527.12 526.35,527.68 525.35,528.01 524.12,528.12 524.12,534.52 526.35,534.97 527.12,535.52 527.68,536.30 528.01,537.30">
        <request index="0" response="00000000" foes="00001000" cont="0"/>
        <request index="1" response="00000000" foes="11001000" cont="0"/>
        <request index="2" response="00100000" foes="00100000" cont="0"/>
        <request index="3" response="00100011" foes="00100011" cont="0"/>
        <request index="4" response="00000000" foes="10000000" cont="0"/>
        <request index="5" response="00000000" foes="10001100" cont="0"/>
        <request index="6" response="00000010" foes="00000010" cont="0"/>
        <request index="7" response="00110010" foes="00110010" cont="0"/>
    </junction>
    <junction id="CA" type="traffic_light" x="1062.65" y="531.32" incLanes="C2CA_0" intLanes=":CA_0_0" shape="1062.65,531.32 1062.65,528.12 1062.65,531.32">
        <request index="0" response="0" foes="0" cont="0"/>
    </junction>
    <junction id="CB" type="traffic_light" x="531.32" y="0.00" incLanes="C2CB_0" intLanes=":CB_0_0" shape="531.32,0.00 528.12,0.00 531.32,0.00">
        <request index="0" response="0" foes="0" cont="0"/>
    </junction>
    <junction id="CC" type="traffic_light" x="0.00" y="531.32" incLanes="C2CC_0" intLanes=":CC_0_0" shape="0.00,531.32 0.00,534.52 0.00,531.32">
        <request index="0" response="0" foes="0" cont="0"/>
    </junction>
    <junction id="D" type="traffic_light" x="407.83" y="1062.65" incLanes="DC2D_0 TL2D_0 DA2D_0 DB2D_0" intLanes=":D_0_0 :D_1_0 :D_2_0 :D_3_0 :D_4_0 :D_5_0 :D_6_0 :D_7_0" shape="404.63,1069.85 411.03,1069.85 411.47,1067.63 412.03,1066.85 412.80,1066.29 413.80,1065.96 415.03,1065.85 415.03,1059.45 412.80,1059.00 412.03,1058.45 411.47,1057.67 411.14,1056.67 411.03,1055.45 404.63,1055.45 404.18,1057.67 403.63,1058.45 402.85,1059.00 401.85,1059.34 400.63,1059.45 400.63,1065.85 402.85,1066.29 403.63,1066.85 404.18,1067.63 404.52,1068.63">
        <request index="0" response="00000000" foes="00001000" cont="0"/>
        <request index="1" response="00000000" foes="11001000" cont="0"/>
        <request index="2" response="00100000" foes="00100000" cont="0"/>
        <request index="3" response="00100011" foes="00100011" cont="0"/>
        <request index="4" response="00000000" foes="10000000" cont="0"/>
        <request index="5" response="00000000" foes="10001100" cont="0"/>
        <request index="6" response="00000010" foes="00000010" cont="0"/>
        <request index="7" response="00110010" foes="00110010" cont="0"/>
    </junction>
    <junction id="DA" type="traffic_light" x="407.83" y="939.15" incLanes="D2DA_0" intLanes=":DA_0_0" shape="407.83,939.15 404.63,939.15 407.83,939.15">
        <request index="0" response="0" foes="0" cont="0"/>
    </junction>
    <junction id="DB" type="traffic_light" x="284.33" y="1062.65" incLanes="D2DB_0" intLanes=":DB_0_0" shape="284.33,1062.65 284.33,1065.85 284.33,1062.65">
        <request index="0" response="0" foes="0" cont="0"/>
    </junction>
    <junction id="DC" type="traffic_light" x="407.83" y="1186.15" incLanes="D2DC_0" intLanes=":DC_0_0" shape="407.83,1186.15 411.03,1186.15 407.83,1186.15">
        <request index="0" response="0" foes="0" cont="0"/>
    </junction>
    <junction id="TL" type="traffic_light_right_on_red" x="531.32" y="1062.65" incLanes="A2TL_0 B2TL_0 C2TL_0 D2TL_0" intLanes=":TL_0_0 :TL_1_0 :TL_2_0 :TL_3_0 :TL_4_0 :TL_5_0 :TL_6_0 :TL_7_0" shape="528.12,1069.85 534.52,1069.85 534.97,1067.63 535.52,1066.85 536.30,1066.29 537.30,1065.96 538.52,1065.85 538.52,1059.45 536.30,1059.00 535.52,1058.45 534.97,1057.67 534.64,1056.67 534.52,1055.45 528.12,1055.45 527.68,1057.67 527.12,1058.45 526.35,1059.00 525.35,1059.34 524.12,1059.45 524.12,1065.85 526.35,1066.29 527.12,1066.85 527.68,1067.63 528.01,1068.63">
        <request index="0" response="00001000" foes="00001000" cont="0"/>
        <request index="1" response="00000000" foes="11001000" cont="0"/>
        <request index="2" response="00100000" foes="00100000" cont="0"/>
        <request index="3" response="00100011" foes="00100011" cont="0"/>
        <request index="4" response="10000000" foes="10000000" cont="0"/>
        <request index="5" response="00000000" foes="10001100" cont="0"/>
        <request index="6" response="00000010" foes="00000010" cont="0"/>
        <request index="7" response="00110010" foes="00110010" cont="0"/>
    </junction>

    <connection from="A2AA" to="AA2A" fromLane="0" toLane="0" via=":AA_0_0" tl="AA" linkIndex="0" dir="t" state="O"/>
    <connection from="A2AB" to="AB2A" fromLane="0" toLane="0" via=":AB_0_0" tl="AB" linkIndex="0" dir="t" state="O"/>
    <connection from="A2AC" to="AC2A" fromLane="0" toLane="0" via=":AC_0_0" tl="AC" linkIndex="0" dir="t" state="O"/>
    <connection from="A2TL" to="TL2D" fromLane="0" toLane="0" via=":TL_0_0" tl="TL" linkIndex="0" dir="r" state="O"/>
    <connection from="A2TL" to="TL2C" fromLane="0" toLane="0" via=":TL_1_0" tl="TL" linkIndex="1" dir="s" state="O"/>
    <connection from="AA2A" to="A2TL" fromLane="0" toLane="0" via=":A_6_0" tl="A" linkIndex="6" dir="r" state="o"/>
    <connection from="AA2A" to="A2AC" fromLane="0" toLane="0" via=":A_7_0" tl="A" linkIndex="7" dir="s" state="o"/>
    <connection from="AB2A" to="A2AA" fromLane="0" toLane="0" via=":A_0_0" tl="A" linkIndex="0" dir="r" state="O"/>
    <connection from="AB2A" to="A2TL" fromLane="0" toLane="0" via=":A_1_0" tl="A" linkIndex="1" dir="s" state="O"/>
    <connection from="AC2A" to="A2AB" fromLane="0" toLane="0" via=":A_2_0" tl="A" linkIndex="2" dir="r" state="o"/>
    <connection from="AC2A" to="A2AA" fromLane="0" toLane="0" via=":A_3_0" tl="A" linkIndex="3" dir="s" state="o"/>
    <connection from="B2BA" to="BA2B" fromLane="0" toLane="0" via=":BA_0_0" tl="BA" linkIndex="0" dir="t" state="O"/>
    <connection from="B2BB" to="BB2B" fromLane="0" toLane="0" via=":BB_0_0" tl="BB" linkIndex="0" dir="t" state="O"/>
    <connection from="B2BC" to="BC2B" fromLane="0" toLane="0" via=":BC_0_0" tl="BC" linkIndex="0" dir="t" state="O"/>