<?xml version="1.0" encoding="UTF-8"?>

<!-- generated on 2022-10-11 16:45:16 by Eclipse SUMO netconvert Version 1.14.1
<configuration xmlns:xsi="http://www.w3.org/2001/XMLSchema-instance" xsi:noNamespaceSchemaLocation="http://sumo.dlr.de/xsd/netconvertConfiguration.xsd">

    <input>
        <node-files value="../data/salt-lake-city/nodes.nod.xml"/>
        <edge-files value="../data/salt-lake-city/edges.edg.xml"/>
        <connection-files value="../data/salt-lake-city/connections.con.xml"/>
    </input>

    <output>
        <output-file value="../data/salt-lake-city/sumo/net/204.net.xml"/>
    </output>

    <tls_building>
        <tls.minor-left.max-speed value="1"/>
    </tls_building>

    <report>
        <verbose value="true"/>
    </report>

</configuration>
-->

<net version="1.9" junctionCornerDetail="5" limitTurnSpeed="5.50" xmlns:xsi="http://www.w3.org/2001/XMLSchema-instance" xsi:noNamespaceSchemaLocation="http://sumo.dlr.de/xsd/net_file.xsd">

    <location netOffset="587.46,590.51" convBoundary="0.00,0.00,1188.19,1209.58" origBoundary="-587.46,-590.51,600.73,619.07" projParameter="!"/>

    <edge id=":A_0" function="internal">
        <lane id=":A_0_0" index="0" speed="8.10" length="14.57" shape="579.46,920.05,0.47 578.71,917.60,0.47 576.46,915.85,0.47 572.71,914.80,0.47 567.46,914.45,0.47"/>
    </edge>
    <edge id=":A_1" function="internal">
        <lane id=":A_1_0" index="0" speed="35.00" length="40.63" shape="579.46,920.05,0.47 578.46,910.32,0.46 576.26,902.02,0.46 574.06,892.73,0.45 573.06,880.05,0.44"/>
        <lane id=":A_1_1" index="1" speed="35.00" length="40.63" shape="582.66,920.05,0.47 581.66,910.32,0.46 579.46,902.02,0.46 577.26,892.73,0.45 576.26,880.05,0.44"/>
        <lane id=":A_1_2" index="2" speed="35.00" length="40.63" shape="585.86,920.05,0.47 584.86,910.32,0.46 582.66,902.02,0.46 580.46,892.73,0.45 579.46,880.05,0.44"/>
    </edge>
    <edge id=":A_4" function="internal">
        <lane id=":A_4_0" index="0" speed="12.28" length="17.06" shape="585.86,920.05,0.47 587.21,910.60,0.47 591.07,904.16,0.47"/>
    </edge>
    <edge id=":A_20" function="internal">
        <lane id=":A_20_0" index="0" speed="12.28" length="17.78" shape="591.07,904.16,0.47 591.26,903.85,0.47 598.01,899.80,0.47 607.46,898.45,0.47"/>
    </edge>
    <edge id=":A_5" function="internal">
        <lane id=":A_5_0" index="0" speed="8.10" length="14.57" shape="607.46,908.05,0.47 605.01,908.80,0.47 603.26,911.05,0.47 602.21,914.80,0.47 601.86,920.05,0.47"/>
    </edge>
    <edge id=":A_6" function="internal">
        <lane id=":A_6_0" index="0" speed="35.00" length="40.63" shape="607.46,908.05,0.47 597.73,909.05,0.47 589.43,911.25,0.47 580.14,913.45,0.47 567.46,914.45,0.47"/>
        <lane id=":A_6_1" index="1" speed="35.00" length="40.63" shape="607.46,904.85,0.47 597.73,905.85,0.47 589.43,908.05,0.47 580.14,910.25,0.47 567.46,911.25,0.47"/>
        <lane id=":A_6_2" index="2" speed="35.00" length="40.63" shape="607.46,901.65,0.47 597.73,902.65,0.47 589.43,904.85,0.47 580.14,907.05,0.47 567.46,908.05,0.47"/>
    </edge>
    <edge id=":A_9" function="internal">
        <lane id=":A_9_0" index="0" speed="12.28" length="17.06" shape="607.46,901.65,0.47 598.01,900.30,0.46 591.57,896.43,0.46"/>
    </edge>
    <edge id=":A_21" function="internal">
        <lane id=":A_21_0" index="0" speed="12.28" length="17.78" shape="591.57,896.43,0.46 591.26,896.25,0.46 587.21,889.50,0.45 585.86,880.05,0.44"/>
    </edge>
    <edge id=":A_10" function="internal">
        <lane id=":A_10_0" index="0" speed="8.10" length="14.57" shape="595.46,880.05,0.44 596.21,882.50,0.45 598.46,884.25,0.45 602.21,885.30,0.46 607.46,885.65,0.47"/>
    </edge>
    <edge id=":A_11" function="internal">
        <lane id=":A_11_0" index="0" speed="35.00" length="40.63" shape="595.46,880.05,0.44 596.46,889.78,0.45 598.66,898.08,0.46 600.86,907.36,0.46 601.86,920.05,0.47"/>
        <lane id=":A_11_1" index="1" speed="35.00" length="40.63" shape="592.26,880.05,0.44 593.26,889.78,0.45 595.46,898.08,0.46 597.66,907.36,0.46 598.66,920.05,0.47"/>
        <lane id=":A_11_2" index="2" speed="35.00" length="40.63" shape="589.06,880.05,0.44 590.06,889.78,0.45 592.26,898.08,0.46 594.46,907.36,0.46 595.46,920.05,0.47"/>
    </edge>
    <edge id=":A_14" function="internal">
        <lane id=":A_14_0" index="0" speed="12.28" length="17.06" shape="589.06,880.05,0.44 587.71,889.50,0.45 583.84,895.94,0.46"/>
    </edge>
    <edge id=":A_22" function="internal">
        <lane id=":A_22_0" index="0" speed="12.28" length="17.78" shape="583.84,895.94,0.46 583.66,896.25,0.46 576.91,900.30,0.46 567.46,901.65,0.47"/>
    </edge>
    <edge id=":A_15" function="internal">
        <lane id=":A_15_0" index="0" speed="8.10" length="14.57" shape="567.46,892.05,0.47 569.91,891.30,0.47 571.66,889.05,0.46 572.71,885.30,0.45 573.06,880.05,0.44"/>
    </edge>
    <edge id=":A_16" function="internal">
        <lane id=":A_16_0" index="0" speed="35.00" length="40.63" shape="567.46,892.05,0.47 577.19,891.05,0.47 585.49,888.85,0.47 594.77,886.65,0.47 607.46,885.65,0.47"/>
        <lane id=":A_16_1" index="1" speed="35.00" length="40.63" shape="567.46,895.25,0.47 577.19,894.25,0.47 585.49,892.05,0.47 594.77,889.85,0.47 607.46,888.85,0.47"/>
        <lane id=":A_16_2" index="2" speed="35.00" length="40.63" shape="567.46,898.45,0.47 577.19,897.45,0.47 585.49,895.25,0.47 594.77,893.05,0.47 607.46,892.05,0.47"/>
    </edge>
    <edge id=":A_19" function="internal">
        <lane id=":A_19_0" index="0" speed="12.28" length="17.06" shape="567.46,898.45,0.47 576.91,899.80,0.47 583.35,903.66,0.47"/>
    </edge>
    <edge id=":A_23" function="internal">
        <lane id=":A_23_0" index="0" speed="12.28" length="17.78" shape="583.35,903.66,0.47 583.66,903.85,0.47 587.71,910.60,0.47 589.06,920.05,0.47"/>
    </edge>
    <edge id=":AA_0" function="internal">
        <lane id=":AA_0_0" index="0" speed="3.65" length="4.67" shape="277.92,901.65,0.47 276.72,900.85,0.47 276.32,900.05,0.47 276.72,899.25,0.47 277.92,898.45,0.47"/>
    </edge>
    <edge id=":AB_0" function="internal">
        <lane id=":AB_0_0" index="0" speed="3.65" length="4.67" shape="589.06,1209.58,0.47 588.26,1210.78,0.47 587.46,1211.18,0.47 586.66,1210.78,0.47 585.86,1209.58,0.47"/>
    </edge>
    <edge id=":AC_0" function="internal">
        <lane id=":AC_0_0" index="0" speed="3.65" length="4.67" shape="896.99,898.45,0.47 898.19,899.25,0.47 898.59,900.05,0.47 898.19,900.85,0.47 896.99,901.65,0.47"/>
    </edge>
    <edge id=":B_0" function="internal">
        <lane id=":B_0_0" index="0" speed="6.51" length="9.03" shape="879.82,604.11,-2.93 879.47,601.66,-2.89 878.42,599.91,-2.86 876.67,598.86,-2.83 874.22,598.51,-2.80"/>
    </edge>
    <edge id=":B_1" function="internal">
        <lane id=":B_1_0" index="0" speed="30.00" length="27.20" shape="879.82,604.11,-2.93 879.82,576.91,-2.93"/>
        <lane id=":B_1_1" index="1" speed="30.00" length="27.20" shape="883.02,604.11,-2.93 883.02,576.91,-2.93"/>
        <lane id=":B_1_2" index="2" speed="30.00" length="27.20" shape="886.22,604.11,-2.93 886.22,576.91,-2.93"/>
    </edge>
    <edge id=":B_4" function="internal">
        <lane id=":B_4_0" index="0" speed="10.36" length="5.01" shape="886.22,604.11,-2.93 886.93,599.15,-2.93"/>
    </edge>
    <edge id=":B_20" function="internal">
        <lane id=":B_20_0" index="0" speed="10.36" length="19.50" shape="886.93,599.15,-2.93 887.17,597.46,-2.93 890.02,592.71,-2.93 894.77,589.86,-2.93 901.42,588.91,-2.93"/>
    </edge>
    <edge id=":B_5" function="internal">
        <lane id=":B_5_0" index="0" speed="6.51" length="9.03" shape="901.42,598.51,-2.93 898.97,598.86,-2.93 897.22,599.91,-2.93 896.17,601.66,-2.93 895.82,604.11,-2.93"/>
    </edge>
    <edge id=":B_6" function="internal">
        <lane id=":B_6_0" index="0" speed="30.00" length="27.20" shape="901.42,598.51,-2.93 874.22,598.51,-2.80"/>
        <lane id=":B_6_1" index="1" speed="30.00" length="27.20" shape="901.42,595.31,-2.93 874.22,595.31,-2.80"/>
        <lane id=":B_6_2" index="2" speed="30.00" length="27.20" shape="901.42,592.11,-2.93 874.22,592.11,-2.80"/>
    </edge>
    <edge id=":B_9" function="internal">
        <lane id=":B_9_0" index="0" speed="10.36" length="5.01" shape="901.42,592.11,-2.93 896.46,591.40,-2.93"/>
    </edge>
    <edge id=":B_21" function="internal">
        <lane id=":B_21_0" index="0" speed="10.36" length="19.50" shape="896.46,591.40,-2.93 894.77,591.16,-2.93 890.02,588.31,-2.93 887.17,583.56,-2.93 886.22,576.91,-2.93"/>
    </edge>
    <edge id=":B_10" function="internal">
        <lane id=":B_10_0" index="0" speed="6.51" length="9.03" shape="895.82,576.91,-2.93 896.17,579.36,-2.93 897.22,581.11,-2.93 898.97,582.16,-2.93 901.42,582.51,-2.93"/>
    </edge>
    <edge id=":B_11" function="internal">
        <lane id=":B_11_0" index="0" speed="30.00" length="27.20" shape="895.82,576.91,-2.93 895.82,604.11,-2.93"/>
        <lane id=":B_11_1" index="1" speed="30.00" length="27.20" shape="892.62,576.91,-2.93 892.62,604.11,-2.93"/>
        <lane id=":B_11_2" index="2" speed="30.00" length="27.20" shape="889.42,576.91,-2.93 889.42,604.11,-2.93"/>
    </edge>
    <edge id=":B_14" function="internal">
        <lane id=":B_14_0" index="0" speed="10.36" length="5.01" shape="889.42,576.91,-2.93 888.71,581.88,-2.90"/>
    </edge>
    <edge id=":B_22" function="internal">
        <lane id=":B_22_0" index="0" speed="10.36" length="19.50" shape="888.71,581.88,-2.90 888.47,583.56,-2.89 885.62,588.31,-2.86 880.87,591.16,-2.83 874.22,592.11,-2.80"/>
    </edge>
    <edge id=":B_15" function="internal">
        <lane id=":B_15_0" index="0" speed="6.51" length="9.03" shape="874.22,582.51,-2.80 876.67,582.16,-2.83 878.42,581.11,-2.86 879.47,579.36,-2.89 879.82,576.91,-2.93"/>
    </edge>
    <edge id=":B_16" function="internal">
        <lane id=":B_16_0" index="0" speed="30.00" length="27.20" shape="874.22,582.51,-2.80 901.42,582.51,-2.93"/>
        <lane id=":B_16_1" index="1" speed="30.00" length="27.20" shape="874.22,585.71,-2.80 901.42,585.71,-2.93"/>
        <lane id=":B_16_2" index="2" speed="30.00" length="27.20" shape="874.22,588.91,-2.80 901.42,588.91,-2.93"/>
    </edge>
    <edge id=":B_19" function="internal">
        <lane id=":B_19_0" index="0" speed="10.36" length="5.01" shape="874.22,588.91,-2.80 879.19,589.62,-2.82"/>
    </edge>
    <edge id=":B_23" function="internal">
        <lane id=":B_23_0" index="0" speed="10.36" length="19.50" shape="879.19,589.62,-2.82 880.87,589.86,-2.83 885.62,592.71,-2.86 888.47,597.46,-2.89 889.42,604.11,-2.93"/>
    </edge>
    <edge id=":BA_0" function="internal">
        <lane id=":BA_0_0" index="0" speed="3.65" length="4.67" shape="889.42,890.88,-2.93 888.62,892.08,-2.93 887.82,892.48,-2.93 887.02,892.08,-2.93 886.22,890.88,-2.93"/>
    </edge>
    <edge id=":BB_0" function="internal">
        <lane id=":BB_0_0" index="0" speed="3.65" length="4.67" shape="1188.19,588.91,-2.93 1189.39,589.71,-2.93 1189.79,590.51,-2.93 1189.39,591.31,-2.93 1188.19,592.11,-2.93"/>
    </edge>
    <edge id=":BC_0" function="internal">
        <lane id=":BC_0_0" index="0" speed="3.65" length="4.67" shape="886.22,290.14,-2.93 887.02,288.94,-2.93 887.82,288.54,-2.93 888.62,288.94,-2.93 889.42,290.14,-2.93"/>
    </edge>
    <edge id=":C_0" function="internal">
        <lane id=":C_0_0" index="0" speed="6.51" length="9.03" shape="579.46,308.86,0.60 579.11,306.41,0.61 578.06,304.66,0.62 576.31,303.61,0.62 573.86,303.26,0.63"/>
    </edge>
    <edge id=":C_1" function="internal">
        <lane id=":C_1_0" index="0" speed="30.00" length="27.20" shape="579.46,308.86,0.60 579.46,281.66,0.63"/>
        <lane id=":C_1_1" index="1" speed="30.00" length="27.20" shape="582.66,308.86,0.60 582.66,281.66,0.63"/>
        <lane id=":C_1_2" index="2" speed="30.00" length="27.20" shape="585.86,308.86,0.60 585.86,281.66,0.63"/>
    </edge>
    <edge id=":C_4" function="internal">
        <lane id=":C_4_0" index="0" speed="10.36" length="5.01" shape="585.86,308.86,0.60 586.56,303.89,0.61"/>
    </edge>
    <edge id=":C_20" function="internal">
        <lane id=":C_20_0" index="0" speed="10.36" length="19.50" shape="586.56,303.89,0.61 586.81,302.21,0.61 589.66,297.46,0.62 594.41,294.61,0.62 601.06,293.66,0.63"/>
    </edge>
    <edge id=":C_5" function="internal">
        <lane id=":C_5_0" index="0" speed="6.51" length="9.03" shape="601.06,303.26,0.63 598.61,303.61,0.62 596.86,304.66,0.62 595.81,306.41,0.61 595.46,308.86,0.60"/>
    </edge>
    <edge id=":C_6" function="internal">
        <lane id=":C_6_0" index="0" speed="30.00" length="27.20" shape="601.06,303.26,0.63 573.86,303.26,0.63"/>
        <lane id=":C_6_1" index="1" speed="30.00" length="27.20" shape="601.06,300.06,0.63 573.86,300.06,0.63"/>
        <lane id=":C_6_2" index="2" speed="30.00" length="27.20" shape="601.06,296.86,0.63 573.86,296.86,0.63"/>
    </edge>
    <edge id=":C_9" function="internal">
        <lane id=":C_9_0" index="0" speed="10.36" length="5.01" shape="601.06,296.86,0.63 596.09,296.15,0.63"/>
    </edge>
    <edge id=":C_21" function="internal">
        <lane id=":C_21_0" index="0" speed="10.36" length="19.50" shape="596.09,296.15,0.63 594.41,295.91,0.63 589.66,293.06,0.63 586.81,288.31,0.63 585.86,281.66,0.63"/>
    </edge>
    <edge id=":C_10" function="internal">
        <lane id=":C_10_0" index="0" speed="6.51" length="9.03" shape="595.46,281.66,0.63 595.81,284.11,0.63 596.86,285.86,0.63 598.61,286.91,0.63 601.06,287.26,0.63"/>
    </edge>
    <edge id=":C_11" function="internal">
        <lane id=":C_11_0" index="0" speed="30.00" length="27.20" shape="595.46,281.66,0.63 595.46,308.86,0.60"/>
        <lane id=":C_11_1" index="1" speed="30.00" length="27.20" shape="592.26,281.66,0.63 592.26,308.86,0.60"/>
        <lane id=":C_11_2" index="2" speed="30.00" length="27.20" shape="589.06,281.66,0.63 589.06,308.86,0.60"/>
    </edge>
    <edge id=":C_14" function="internal">
        <lane id=":C_14_0" index="0" speed="10.36" length="5.01" shape="589.06,281.66,0.63 588.35,286.62,0.63"/>
    </edge>
    <edge id=":C_22" function="internal">
        <lane id=":C_22_0" index="0" speed="10.36" length="19.50" shape="588.35,286.62,0.63 588.11,288.31,0.63 585.26,293.06,0.63 580.51,295.91,0.63 573.86,296.86,0.63"/>
    </edge>
    <edge id=":C_15" function="internal">
        <lane id=":C_15_0" index="0" speed="6.51" length="9.03" shape="573.86,287.26,0.63 576.31,286.91,0.63 578.06,285.86,0.63 579.11,284.11,0.63 579.46,281.66,0.63"/>
    </edge>
    <edge id=":C_16" function="internal">
        <lane id=":C_16_0" index="0" speed="30.00" length="27.20" shape="573.86,287.26,0.63 601.06,287.26,0.63"/>
        <lane id=":C_16_1" index="1" speed="30.00" length="27.20" shape="573.86,290.46,0.63 601.06,290.46,0.63"/>
        <lane id=":C_16_2" index="2" speed="30.00" length="27.20" shape="573.86,293.66,0.63 601.06,293.66,0.63"/>
    </edge>
    <edge id=":C_19" function="internal">
        <lane id=":C_19_0" index="0" speed="10.36" length="5.01" shape="573.86,293.66,0.63 578.82,294.36,0.62"/>
    </edge>
    <edge id=":C_23" function="internal">
        <lane id=":C_23_0" index="0" speed="10.36" length="19.50" shape="578.82,294.36,0.62 580.51,294.61,0.62 585.26,297.46,0.62 588.11,302.21,0.61 589.06,308.86,0.60"/>
    </edge>
    <edge id=":CA_0" function="internal">
        <lane id=":CA_0_0" index="0" speed="3.65" length="4.67" shape="882.71,293.66,0.63 883.91,294.46,0.63 884.31,295.26,0.63 883.91,296.06,0.63 882.71,296.86,0.63"/>
    </edge>
    <edge id=":CB_0" function="internal">
        <lane id=":CB_0_0" index="0" speed="3.65" length="4.67" shape="585.86,0.00,0.63 586.66,-1.20,0.63 587.46,-1.60,0.63 588.26,-1.20,0.63 589.06,0.00,0.63"/>
    </edge>
    <edge id=":CC_0" function="internal">
        <lane id=":CC_0_0" index="0" speed="3.65" length="4.67" shape="292.20,296.86,0.63 291.00,296.06,0.63 290.60,295.26,0.63 291.00,294.46,0.63 292.20,293.66,0.63"/>
    </edge>
    <edge id=":D_0" function="internal">
        <lane id=":D_0_0" index="0" speed="6.51" length="9.03" shape="285.73,604.11,5.37 285.38,601.66,5.37 284.33,599.91,5.37 282.58,598.86,5.37 280.13,598.51,5.37"/>
    </edge>
    <edge id=":D_1" function="internal">
        <lane id=":D_1_0" index="0" speed="30.00" length="27.20" shape="285.73,604.11,5.37 285.73,576.91,5.37"/>
        <lane id=":D_1_1" index="1" speed="30.00" length="27.20" shape="288.93,604.11,5.37 288.93,576.91,5.37"/>
        <lane id=":D_1_2" index="2" speed="30.00" length="27.20" shape="292.13,604.11,5.37 292.13,576.91,5.37"/>
    </edge>
    <edge id=":D_4" function="internal">
        <lane id=":D_4_0" index="0" speed="10.36" length="5.01" shape="292.13,604.11,5.37 292.84,599.15,5.37"/>
    </edge>
    <edge id=":D_20" function="internal">
        <lane id=":D_20_0" index="0" speed="10.36" length="19.50" shape="292.84,599.15,5.37 293.08,597.46,5.37 295.93,592.71,5.37 300.68,589.86,5.37 307.33,588.91,5.37"/>
    </edge>
    <edge id=":D_5" function="internal">
        <lane id=":D_5_0" index="0" speed="6.51" length="9.03" shape="307.33,598.51,5.37 304.88,598.86,5.37 303.13,599.91,5.37 302.08,601.66,5.37 301.73,604.11,5.37"/>
    </edge>
    <edge id=":D_6" function="internal">
        <lane id=":D_6_0" index="0" speed="30.00" length="27.20" shape="307.33,598.51,5.37 280.13,598.51,5.37"/>
        <lane id=":D_6_1" index="1" speed="30.00" length="27.20" shape="307.33,595.31,5.37 280.13,595.31,5.37"/>
        <lane id=":D_6_2" index="2" speed="30.00" length="27.20" shape="307.33,592.11,5.37 280.13,592.11,5.37"/>
    </edge>
    <edge id=":D_9" function="internal">
        <lane id=":D_9_0" index="0" speed="10.36" length="5.01" shape="307.33,592.11,5.37 302.36,591.40,5.37"/>
    </edge>
    <edge id=":D_21" function="internal">
        <lane id=":D_21_0" index="0" speed="10.36" length="19.50" shape="302.36,591.40,5.37 300.68,591.16,5.37 295.93,588.31,5.37 293.08,583.56,5.37 292.13,576.91,5.37"/>
    </edge>
    <edge id=":D_10" function="internal">
        <lane id=":D_10_0" index="0" speed="6.51" length="9.03" shape="301.73,576.91,5.37 302.08,579.36,5.37 303.13,581.11,5.37 304.88,582.16,5.37 307.33,582.51,5.37"/>
    </edge>
    <edge id=":D_11" function="internal">
        <lane id=":D_11_0" index="0" speed="30.00" length="27.20" shape="301.73,576.91,5.37 301.73,604.11,5.37"/>
        <lane id=":D_11_1" index="1" speed="30.00" length="27.20" shape="298.53,576.91,5.37 298.53,604.11,5.37"/>
        <lane id=":D_11_2" index="2" speed="30.00" length="27.20" shape="295.33,576.91,5.37 295.33,604.11,5.37"/>
    </edge>
    <edge id=":D_14" function="internal">
        <lane id=":D_14_0" index="0" speed="10.36" length="5.01" shape="295.33,576.91,5.37 294.62,581.88,5.37"/>
    </edge>
    <edge id=":D_22" function="internal">
        <lane id=":D_22_0" index="0" speed="10.36" length="19.50" shape="294.62,581.88,5.37 294.38,583.56,5.37 291.53,588.31,5.37 286.78,591.16,5.37 280.13,592.11,5.37"/>
    </edge>
    <edge id=":D_15" function="internal">
        <lane id=":D_15_0" index="0" speed="6.51" length="9.03" shape="280.13,582.51,5.37 282.58,582.16,5.37 284.33,581.11,5.37 285.38,579.36,5.37 285.73,576.91,5.37"/>
    </edge>
    <edge id=":D_16" function="internal">
        <lane id=":D_16_0" index="0" speed="30.00" length="27.20" shape="280.13,582.51,5.37 307.33,582.51,5.37"/>
        <lane id=":D_16_1" index="1" speed="30.00" length="27.20" shape="280.13,585.71,5.37 307.33,585.71,5.37"/>
        <lane id=":D_16_2" index="2" speed="30.00" length="27.20" shape="280.13,588.91,5.37 307.33,588.91,5.37"/>
    </edge>
    <edge id=":D_19" function="internal">
        <lane id=":D_19_0" index="0" speed="10.36" length="5.01" shape="280.13,588.91,5.37 285.09,589.62,5.37"/>
    </edge>
    <edge id=":D_23" function="internal">
        <lane id=":D_23_0" index="0" speed="10.36" length="19.50" shape="285.09,589.62,5.37 286.78,589.86,5.37 291.53,592.71,5.37 294.38,597.46,5.37 295.33,604.11,5.37"/>
    </edge>
    <edge id=":DA_0" function="internal">
        <lane id=":DA_0_0" index="0" speed="3.65" length="4.67" shape="292.13,296.78,5.37 292.93,295.58,5.37 293.73,295.18,5.37 294.53,295.58,5.37 295.33,296.78,5.37"/>
    </edge>
    <edge id=":DB_0" function="internal">
        <lane id=":DB_0_0" index="0" speed="3.65" length="4.67" shape="-0.00,592.11,5.37 -1.20,591.31,5.37 -1.60,590.51,5.37 -1.20,589.71,5.37 0.00,588.91,5.37"/>
    </edge>
    <edge id=":DC_0" function="internal">
        <lane id=":DC_0_0" index="0" speed="3.65" length="4.67" shape="295.33,884.24,5.37 294.53,885.44,5.37 293.73,885.84,5.37 292.93,885.44,5.37 292.13,884.24,5.37"/>
    </edge>
    <edge id=":TL_0" function="internal">
        <lane id=":TL_0_0" index="0" speed="6.51" length="9.03" shape="573.06,604.11,0.02 572.71,601.66,0.02 571.66,599.91,0.01 569.91,598.86,0.01 567.46,598.51"/>
    </edge>
    <edge id=":TL_1" function="internal">
        <lane id=":TL_1_0" index="0" speed="32.50" length="27.84" shape="573.06,604.11,0.02 574.06,595.93,0.02 576.26,590.51,0.02 578.46,585.09,0.03 579.46,576.91,0.03"/>
        <lane id=":TL_1_1" index="1" speed="32.50" length="27.84" shape="576.26,604.11,0.02 577.26,595.93,0.02 579.46,590.51,0.02 581.66,585.09,0.03 582.66,576.91,0.03"/>
        <lane id=":TL_1_2" index="2" speed="32.50" length="27.84" shape="579.46,604.11,0.02 580.46,595.93,0.02 582.66,590.51,0.02 584.86,585.09,0.03 585.86,576.91,0.03"/>
        <lane id=":TL_1_3" index="3" speed="32.50" length="27.84" shape="582.66,604.11,0.02 583.16,596.01,0.02 584.26,590.51,0.02 585.36,585.01,0.03 585.86,576.91,0.03"/>
        <lane id=":TL_1_4" index="4" speed="32.50" length="27.84" shape="585.86,604.11,0.02 585.86,576.91,0.03"/>
    </edge>
    <edge id=":TL_6" function="internal">
        <lane id=":TL_6_0" index="0" speed="10.36" length="5.01" shape="585.86,604.11,0.02 586.56,599.15,-0.01"/>
    </edge>
    <edge id=":TL_22" function="internal">
        <lane id=":TL_22_0" index="0" speed="10.36" length="19.50" shape="586.56,599.15,-0.01 586.81,597.46,-0.02 589.66,592.71,-0.06 594.41,589.86,-0.09 601.06,588.91,-0.13"/>
    </edge>
    <edge id=":TL_7" function="internal">
        <lane id=":TL_7_0" index="0" speed="6.51" length="9.03" shape="601.06,598.51,-0.13 598.61,598.86,-0.09 596.86,599.91,-0.06 595.81,601.66,-0.02 595.46,604.11,0.02"/>
    </edge>
    <edge id=":TL_8" function="internal">
        <lane id=":TL_8_0" index="0" speed="30.00" length="33.60" shape="601.06,598.51,-0.13 567.46,598.51"/>
        <lane id=":TL_8_1" index="1" speed="30.00" length="33.60" shape="601.06,595.31,-0.13 567.46,595.31"/>
        <lane id=":TL_8_2" index="2" speed="30.00" length="33.60" shape="601.06,592.11,-0.13 567.46,592.11"/>
    </edge>
    <edge id=":TL_11" function="internal">
        <lane id=":TL_11_0" index="0" speed="10.36" length="5.01" shape="601.06,592.11,-0.13 596.09,591.40,-0.10"/>
    </edge>
    <edge id=":TL_23" function="internal">
        <lane id=":TL_23_0" index="0" speed="10.36" length="19.50" shape="596.09,591.40,-0.10 594.41,591.16,-0.09 589.66,588.31,-0.05 586.81,583.56,-0.02 585.86,576.91,0.03"/>
    </edge>
    <edge id=":TL_12" function="internal">
        <lane id=":TL_12_0" index="0" speed="6.51" length="9.03" shape="595.46,576.91,0.03 595.81,579.36,-0.02 596.86,581.11,-0.05 598.61,582.16,-0.09 601.06,582.51,-0.13"/>
    </edge>
    <edge id=":TL_13" function="internal">
        <lane id=":TL_13_0" index="0" speed="32.50" length="27.20" shape="595.46,576.91,0.03 595.46,604.11,0.02"/>
        <lane id=":TL_13_1" index="1" speed="32.50" length="27.20" shape="592.26,576.91,0.03 592.26,604.11,0.02"/>
        <lane id=":TL_13_2" index="2" speed="32.50" length="27.20" shape="589.06,576.91,0.03 589.06,604.11,0.02"/>
    </edge>
    <edge id=":TL_16" function="internal">
        <lane id=":TL_16_0" index="0" speed="11.39" length="3.61" shape="589.06,576.91,0.03 588.34,580.45,0.03"/>
    </edge>
    <edge id=":TL_24" function="internal">
        <lane id=":TL_24_0" index="0" speed="11.39" length="26.24" shape="588.34,580.45,0.03 587.71,583.56,0.02 583.66,588.31,0.02 576.91,591.16,0.01 567.46,592.11"/>
    </edge>
    <edge id=":TL_17" function="internal">
        <lane id=":TL_17_0" index="0" speed="8.10" length="14.57" shape="567.46,582.51 572.71,582.16,0.01 576.46,581.11,0.02 578.71,579.36,0.02 579.46,576.91,0.03"/>
    </edge>
    <edge id=":TL_18" function="internal">
        <lane id=":TL_18_0" index="0" speed="30.00" length="33.60" shape="567.46,582.51 601.06,582.51,-0.13"/>
        <lane id=":TL_18_1" index="1" speed="30.00" length="33.60" shape="567.46,585.71 601.06,585.71,-0.13"/>
        <lane id=":TL_18_2" index="2" speed="30.00" length="33.60" shape="567.46,588.91 601.06,588.91,-0.13"/>
    </edge>
    <edge id=":TL_21" function="internal">
        <lane id=":TL_21_0" index="0" speed="11.39" length="7.04" shape="567.46,588.91 574.46,589.62,0.00"/>
    </edge>
    <edge id=":TL_25" function="internal">
        <lane id=":TL_25_0" index="0" speed="11.39" length="22.81" shape="574.46,589.62,0.00 576.91,589.86,0.01 583.66,592.71,0.01 587.71,597.46,0.02 589.06,604.11,0.02"/>
    </edge>

    <edge id="A2AA" from="A" to="AA" priority="-1">
        <lane id="A2AA_0" index="0" speed="35.00" length="289.54" shape="567.46,914.45,0.47 277.92,914.45,0.47"/>
        <lane id="A2AA_1" index="1" speed="35.00" length="289.54" shape="567.46,911.25,0.47 277.92,911.25,0.47"/>
        <lane id="A2AA_2" index="2" speed="35.00" length="289.54" shape="567.46,908.05,0.47 277.92,908.05,0.47"/>
        <lane id="A2AA_3" index="3" speed="35.00" length="289.54" shape="567.46,904.85,0.47 277.92,904.85,0.47"/>
        <lane id="A2AA_4" index="4" speed="35.00" length="289.54" shape="567.46,901.65,0.47 277.92,901.65,0.47"/>
    </edge>
    <edge id="A2AB" from="A" to="AB" priority="-1">
        <lane id="A2AB_0" index="0" speed="35.00" length="289.54" shape="601.86,920.05,0.47 601.86,1209.58,0.47"/>
        <lane id="A2AB_1" index="1" speed="35.00" length="289.54" shape="598.66,920.05,0.47 598.66,1209.58,0.47"/>
        <lane id="A2AB_2" index="2" speed="35.00" length="289.54" shape="595.46,920.05,0.47 595.46,1209.58,0.47"/>
        <lane id="A2AB_3" index="3" speed="35.00" length="289.54" shape="592.26,920.05,0.47 592.26,1209.58,0.47"/>
        <lane id="A2AB_4" index="4" speed="35.00" length="289.54" shape="589.06,920.05,0.47 589.06,1209.58,0.47"/>
    </edge>
    <edge id="A2AC" from="A" to="AC" priority="-1">
        <lane id="A2AC_0" index="0" speed="35.00" length="289.54" shape="607.46,885.65,0.47 896.99,885.65,0.47"/>
        <lane id="A2AC_1" index="1" speed="35.00" length="289.54" shape="607.46,888.85,0.47 896.99,888.85,0.47"/>
        <lane id="A2AC_2" index="2" speed="35.00" length="289.54" shape="607.46,892.05,0.47 896.99,892.05,0.47"/>
        <lane id="A2AC_3" index="3" speed="35.00" length="289.54" shape="607.46,895.25,0.47 896.99,895.25,0.47"/>
        <lane id="A2AC_4" index="4" speed="35.00" length="289.54" shape="607.46,898.45,0.47 896.99,898.45,0.47"/>
    </edge>
    <edge id="A2TL" from="A" to="TL" priority="-1">
        <lane id="A2TL_0" index="0" speed="35.00" length="275.94" shape="573.06,880.05,0.44 573.06,604.11,0.02"/>
        <lane id="A2TL_1" index="1" speed="35.00" length="275.94" shape="576.26,880.05,0.44 576.26,604.11,0.02"/>
        <lane id="A2TL_2" index="2" speed="35.00" length="275.94" shape="579.46,880.05,0.44 579.46,604.11,0.02"/>
        <lane id="A2TL_3" index="3" speed="35.00" length="275.94" shape="582.66,880.05,0.44 582.66,604.11,0.02"/>
        <lane id="A2TL_4" index="4" speed="35.00" length="275.94" shape="585.86,880.05,0.44 585.86,604.11,0.02"/>
    </edge>
    <edge id="AA2A" from="AA" to="A" priority="-1">
        <lane id="AA2A_0" index="0" speed="35.00" length="289.54" shape="277.92,892.05,0.47 567.46,892.05,0.47"/>
        <lane id="AA2A_1" index="1" speed="35.00" length="289.54" shape="277.92,895.25,0.47 567.46,895.25,0.47"/>
        <lane id="AA2A_2" index="2" speed="35.00" length="289.54" shape="277.92,898.45,0.47 567.46,898.45,0.47"/>
    </edge>
    <edge id="AB2A" from="AB" to="A" priority="-1">
        <lane id="AB2A_0" index="0" speed="35.00" length="289.54" shape="579.46,1209.58,0.47 579.46,920.05,0.47"/>
        <lane id="AB2A_1" index="1" speed="35.00" length="289.54" shape="582.66,1209.58,0.47 582.66,920.05,0.47"/>
        <lane id="AB2A_2" index="2" speed="35.00" length="289.54" shape="585.86,1209.58,0.47 585.86,920.05,0.47"/>
    </edge>
    <edge id="AC2A" from="AC" to="A" priority="-1">
        <lane id="AC2A_0" index="0" speed="35.00" length="289.54" shape="896.99,908.05,0.47 607.46,908.05,0.47"/>
        <lane id="AC2A_1" index="1" speed="35.00" length="289.54" shape="896.99,904.85,0.47 607.46,904.85,0.47"/>
        <lane id="AC2A_2" index="2" speed="35.00" length="289.54" shape="896.99,901.65,0.47 607.46,901.65,0.47"/>
    </edge>
    <edge id="B2BA" from="B" to="BA" priority="-1">
        <lane id="B2BA_0" index="0" speed="30.00" length="286.77" shape="895.82,604.11,-2.93 895.82,890.88,-2.93"/>
        <lane id="B2BA_1" index="1" speed="30.00" length="286.77" shape="892.62,604.11,-2.93 892.62,890.88,-2.93"/>
        <lane id="B2BA_2" index="2" speed="30.00" length="286.77" shape="889.42,604.11,-2.93 889.42,890.88,-2.93"/>
    </edge>
    <edge id="B2BB" from="B" to="BB" priority="-1">
        <lane id="B2BB_0" index="0" speed="30.00" length="286.77" shape="901.42,582.51,-2.93 1188.19,582.51,-2.93"/>
        <lane id="B2BB_1" index="1" speed="30.00" length="286.77" shape="901.42,585.71,-2.93 1188.19,585.71,-2.93"/>
        <lane id="B2BB_2" index="2" speed="30.00" length="286.77" shape="901.42,588.91,-2.93 1188.19,588.91,-2.93"/>
    </edge>
    <edge id="B2BC" from="B" to="BC" priority="-1">
        <lane id="B2BC_0" index="0" speed="30.00" length="286.77" shape="879.82,576.91,-2.93 879.82,290.14,-2.93"/>