<?xml version="1.0" encoding="UTF-8"?>

<!-- generated on 2022-10-11 16:45:17 by Eclipse SUMO netconvert Version 1.14.1
<configuration xmlns:xsi="http://www.w3.org/2001/XMLSchema-instance" xsi:noNamespaceSchemaLocation="http://sumo.dlr.de/xsd/netconvertConfiguration.xsd">

    <input>
        <node-files value="../data/salt-lake-city/nodes.nod.xml"/>
        <edge-files value="../data/salt-lake-city/edges.edg.xml"/>
        <connection-files value="../data/salt-lake-city/connections.con.xml"/>
    </input>

    <output>
        <output-file value="../data/salt-lake-city/sumo/net/218.net.xml"/>
    </output>

    <tls_building>
        <tls.minor-left.max-speed value="1"/>
    </tls_building>

    <report>
        <verbose value="true"/>
    </report>

</configuration>
-->

<net version="1.9" junctionCornerDetail="5" limitTurnSpeed="5.50" xmlns:xsi="http://www.w3.org/2001/XMLSchema-instance" xsi:noNamespaceSchemaLocation="http://sumo.dlr.de/xsd/net_file.xsd">

    <location netOffset="636.71,597.78" convBoundary="0.00,0.00,1270.04,1193.67" origBoundary="-636.71,-597.78,633.33,595.90" projParameter="!"/>

    <edge id=":A_0" function="internal">
        <lane id=":A_0_0" index="0" speed="7.33" length="11.73" shape="635.11,906.13,-7.81 634.56,903.68,-7.81 632.91,901.93,-7.81 630.16,900.88,-7.81 626.31,900.53,-7.81"/>
    </edge>
    <edge id=":A_1" function="internal">
        <lane id=":A_1_0" index="0" speed="30.00" length="21.09" shape="635.11,906.13,-7.81 634.61,902.17,-7.81 633.51,897.60,-7.81 632.41,892.09,-7.81 631.91,885.33,-7.81"/>
    </edge>
    <edge id=":A_2" function="internal">
        <lane id=":A_2_0" index="0" speed="7.33" length="11.73" shape="647.11,897.33,-7.81 644.66,897.88,-7.81 642.91,899.53,-7.81 641.86,902.28,-7.81 641.51,906.13,-7.81"/>
    </edge>
    <edge id=":A_3" function="internal">
        <lane id=":A_3_0" index="0" speed="30.00" length="21.09" shape="647.11,897.33,-7.81 643.16,897.83,-7.81 638.59,898.93,-7.81 633.08,900.03,-7.81 626.31,900.53,-7.81"/>
    </edge>
    <edge id=":A_4" function="internal">
        <lane id=":A_4_0" index="0" speed="7.33" length="11.73" shape="638.31,885.33,-7.81 638.86,887.78,-7.81 640.51,889.53,-7.81 643.26,890.58,-7.81 647.11,890.93,-7.81"/>
    </edge>
    <edge id=":A_5" function="internal">
        <lane id=":A_5_0" index="0" speed="30.00" length="21.09" shape="638.31,885.33,-7.81 638.81,889.28,-7.81 639.91,893.85,-7.81 641.01,899.36,-7.81 641.51,906.13,-7.81"/>
    </edge>
    <edge id=":A_6" function="internal">
        <lane id=":A_6_0" index="0" speed="7.33" length="11.73" shape="626.31,894.13,-7.81 628.76,893.58,-7.81 630.51,891.93,-7.81 631.56,889.18,-7.81 631.91,885.33,-7.81"/>
    </edge>
    <edge id=":A_7" function="internal">
        <lane id=":A_7_0" index="0" speed="30.00" length="21.09" shape="626.31,894.13,-7.81 630.27,893.63,-7.81 634.84,892.53,-7.81 640.35,891.43,-7.81 647.11,890.93,-7.81"/>
    </edge>
    <edge id=":AA_0" function="internal">
        <lane id=":AA_0_0" index="0" speed="3.65" length="4.67" shape="338.77,897.33,-7.81 337.57,896.53,-7.81 337.17,895.73,-7.81 337.57,894.93,-7.81 338.77,894.13,-7.81"/>
    </edge>
    <edge id=":AB_0" function="internal">
        <lane id=":AB_0_0" index="0" speed="3.65" length="4.67" shape="638.31,1193.67,-7.81 637.51,1194.87,-7.81 636.71,1195.27,-7.81 635.91,1194.87,-7.81 635.11,1193.67,-7.81"/>
    </edge>
    <edge id=":AC_0" function="internal">
        <lane id=":AC_0_0" index="0" speed="3.65" length="4.67" shape="934.66,894.13,-7.81 935.86,894.93,-7.81 936.26,895.73,-7.81 935.86,896.53,-7.81 934.66,897.33,-7.81"/>
    </edge>
    <edge id=":B_0" function="internal">
        <lane id=":B_0_0" index="0" speed="6.51" length="9.03" shape="945.38,611.38,-7.43 945.03,608.93,-7.43 943.98,607.18,-7.43 942.23,606.13,-7.43 939.78,605.78,-7.43"/>
    </edge>
    <edge id=":B_1" function="internal">
        <lane id=":B_1_0" index="0" speed="35.00" length="27.20" shape="945.38,611.38,-7.43 945.38,584.18,-7.43"/>
        <lane id=":B_1_1" index="1" speed="35.00" length="27.20" shape="948.58,611.38,-7.43 948.58,584.18,-7.43"/>
        <lane id=":B_1_2" index="2" speed="35.00" length="27.20" shape="951.78,611.38,-7.43 951.78,584.18,-7.43"/>
    </edge>
    <edge id=":B_4" function="internal">
        <lane id=":B_4_0" index="0" speed="10.36" length="5.01" shape="951.78,611.38,-7.43 952.49,606.41,-7.43"/>
    </edge>
    <edge id=":B_20" function="internal">
        <lane id=":B_20_0" index="0" speed="10.36" length="19.50" shape="952.49,606.41,-7.43 952.73,604.73,-7.43 955.58,599.98,-7.43 960.33,597.13,-7.43 966.98,596.18,-7.43"/>
    </edge>
    <edge id=":B_5" function="internal">
        <lane id=":B_5_0" index="0" speed="6.51" length="9.03" shape="966.98,605.78,-7.43 964.53,606.13,-7.43 962.78,607.18,-7.43 961.73,608.93,-7.43 961.38,611.38,-7.43"/>
    </edge>
    <edge id=":B_6" function="internal">
        <lane id=":B_6_0" index="0" speed="35.00" length="27.20" shape="966.98,605.78,-7.43 939.78,605.78,-7.43"/>
        <lane id=":B_6_1" index="1" speed="35.00" length="27.20" shape="966.98,602.58,-7.43 939.78,602.58,-7.43"/>
        <lane id=":B_6_2" index="2" speed="35.00" length="27.20" shape="966.98,599.38,-7.43 939.78,599.38,-7.43"/>
    </edge>
    <edge id=":B_9" function="internal">
        <lane id=":B_9_0" index="0" speed="10.36" length="5.01" shape="966.98,599.38,-7.43 962.01,598.67,-7.43"/>
    </edge>
    <edge id=":B_21" function="internal">
        <lane id=":B_21_0" index="0" speed="10.36" length="19.50" shape="962.01,598.67,-7.43 960.33,598.43,-7.43 955.58,595.58,-7.43 952.73,590.83,-7.43 951.78,584.18,-7.43"/>
    </edge>
    <edge id=":B_10" function="internal">
        <lane id=":B_10_0" index="0" speed="6.51" length="9.03" shape="961.38,584.18,-7.43 961.73,586.63,-7.43 962.78,588.38,-7.43 964.53,589.43,-7.43 966.98,589.78,-7.43"/>
    </edge>
    <edge id=":B_11" function="internal">
        <lane id=":B_11_0" index="0" speed="35.00" length="27.20" shape="961.38,584.18,-7.43 961.38,611.38,-7.43"/>
        <lane id=":B_11_1" index="1" speed="35.00" length="27.20" shape="958.18,584.18,-7.43 958.18,611.38,-7.43"/>
        <lane id=":B_11_2" index="2" speed="35.00" length="27.20" shape="954.98,584.18,-7.43 954.98,611.38,-7.43"/>
    </edge>
    <edge id=":B_14" function="internal">
        <lane id=":B_14_0" index="0" speed="10.36" length="5.01" shape="954.98,584.18,-7.43 954.27,589.14,-7.43"/>
    </edge>
    <edge id=":B_22" function="internal">
        <lane id=":B_22_0" index="0" speed="10.36" length="19.50" shape="954.27,589.14,-7.43 954.03,590.83,-7.43 951.18,595.58,-7.43 946.43,598.43,-7.43 939.78,599.38,-7.43"/>
    </edge>
    <edge id=":B_15" function="internal">
        <lane id=":B_15_0" index="0" speed="6.51" length="9.03" shape="939.78,589.78,-7.43 942.23,589.43,-7.43 943.98,588.38,-7.43 945.03,586.63,-7.43 945.38,584.18,-7.43"/>
    </edge>
    <edge id=":B_16" function="internal">
        <lane id=":B_16_0" index="0" speed="35.00" length="27.20" shape="939.78,589.78,-7.43 966.98,589.78,-7.43"/>
        <lane id=":B_16_1" index="1" speed="35.00" length="27.20" shape="939.78,592.98,-7.43 966.98,592.98,-7.43"/>
        <lane id=":B_16_2" index="2" speed="35.00" length="27.20" shape="939.78,596.18,-7.43 966.98,596.18,-7.43"/>
    </edge>
    <edge id=":B_19" function="internal">
        <lane id=":B_19_0" index="0" speed="10.36" length="5.01" shape="939.78,596.18,-7.43 944.74,596.89,-7.43"/>
    </edge>
    <edge id=":B_23" function="internal">
        <lane id=":B_23_0" index="0" speed="10.36" length="19.50" shape="944.74,596.89,-7.43 946.43,597.13,-7.43 951.18,599.98,-7.43 954.03,604.73,-7.43 954.98,611.38,-7.43"/>
    </edge>
    <edge id=":BA_0" function="internal">
        <lane id=":BA_0_0" index="0" speed="3.65" length="4.67" shape="954.98,914.44,-7.43 954.18,915.64,-7.43 953.38,916.04,-7.43 952.58,915.64,-7.43 951.78,914.44,-7.43"/>
    </edge>
    <edge id=":BB_0" function="internal">
        <lane id=":BB_0_0" index="0" speed="3.65" length="4.67" shape="1270.04,596.18,-7.43 1271.24,596.98,-7.43 1271.64,597.78,-7.43 1271.24,598.58,-7.43 1270.04,599.38,-7.43"/>
    </edge>
    <edge id=":BC_0" function="internal">
        <lane id=":BC_0_0" index="0" speed="3.65" length="4.67" shape="951.78,281.11,-7.43 952.58,279.91,-7.43 953.38,279.51,-7.43 954.18,279.91,-7.43 954.98,281.11,-7.43"/>
    </edge>
    <edge id=":C_0" function="internal">
        <lane id=":C_0_0" index="0" speed="6.51" length="9.03" shape="631.91,309.29,-7.38 631.56,306.84,-7.38 630.51,305.09,-7.38 628.76,304.04,-7.38 626.31,303.69,-7.38"/>
    </edge>
    <edge id=":C_1" function="internal">
        <lane id=":C_1_0" index="0" speed="30.00" length="20.80" shape="631.91,309.29,-7.38 631.91,288.49,-7.38"/>
        <lane id=":C_1_1" index="1" speed="30.00" length="20.80" shape="635.11,309.29,-7.38 635.11,288.49,-7.38"/>
    </edge>
    <edge id=":C_3" function="internal">
        <lane id=":C_3_0" index="0" speed="9.26" length="5.01" shape="635.11,309.29,-7.38 635.82,304.33,-7.38"/>
    </edge>
    <edge id=":C_16" function="internal">
        <lane id=":C_16_0" index="0" speed="9.26" length="14.34" shape="635.82,304.33,-7.38 635.86,304.04,-7.38 638.11,300.29,-7.38 641.86,298.04,-7.38 647.11,297.29,-7.38"/>
    </edge>
    <edge id=":C_4" function="internal">
        <lane id=":C_4_0" index="0" speed="6.51" length="9.03" shape="647.11,303.69,-7.38 644.66,304.04,-7.38 642.91,305.09,-7.38 641.86,306.84,-7.38 641.51,309.29,-7.38"/>
    </edge>
    <edge id=":C_5" function="internal">
        <lane id=":C_5_0" index="0" speed="30.00" length="20.80" shape="647.11,303.69,-7.38 626.31,303.69,-7.38"/>
        <lane id=":C_5_1" index="1" speed="30.00" length="20.80" shape="647.11,300.49,-7.38 626.31,300.49,-7.38"/>
    </edge>
    <edge id=":C_7" function="internal">
        <lane id=":C_7_0" index="0" speed="9.26" length="5.01" shape="647.11,300.49,-7.38 642.15,299.78,-7.38"/>
    </edge>
    <edge id=":C_17" function="internal">
        <lane id=":C_17_0" index="0" speed="9.26" length="14.34" shape="642.15,299.78,-7.38 641.86,299.74,-7.38 638.11,297.49,-7.38 635.86,293.74,-7.38 635.11,288.49,-7.38"/>
    </edge>
    <edge id=":C_8" function="internal">
        <lane id=":C_8_0" index="0" speed="6.51" length="9.03" shape="641.51,288.49,-7.38 641.86,290.94,-7.38 642.91,292.69,-7.38 644.66,293.74,-7.38 647.11,294.09,-7.38"/>
    </edge>
    <edge id=":C_9" function="internal">
        <lane id=":C_9_0" index="0" speed="30.00" length="20.80" shape="641.51,288.49,-7.38 641.51,309.29,-7.38"/>
        <lane id=":C_9_1" index="1" speed="30.00" length="20.80" shape="638.31,288.49,-7.38 638.31,309.29,-7.38"/>
    </edge>
    <edge id=":C_11" function="internal">
        <lane id=":C_11_0" index="0" speed="9.26" length="5.01" shape="638.31,288.49,-7.38 637.60,293.45,-7.38"/>
    </edge>
    <edge id=":C_18" function="internal">
        <lane id=":C_18_0" index="0" speed="9.26" length="14.34" shape="637.60,293.45,-7.38 637.56,293.74,-7.38 635.31,297.49,-7.38 631.56,299.74,-7.38 626.31,300.49,-7.38"/>
    </edge>
    <edge id=":C_12" function="internal">
        <lane id=":C_12_0" index="0" speed="6.51" length="9.03" shape="626.31,294.09,-7.38 628.76,293.74,-7.38 630.51,292.69,-7.38 631.56,290.94,-7.38 631.91,288.49,-7.38"/>
    </edge>
    <edge id=":C_13" function="internal">
        <lane id=":C_13_0" index="0" speed="30.00" length="20.80" shape="626.31,294.09,-7.38 647.11,294.09,-7.38"/>
        <lane id=":C_13_1" index="1" speed="30.00" length="20.80" shape="626.31,297.29,-7.38 647.11,297.29,-7.38"/>
    </edge>
    <edge id=":C_15" function="internal">
        <lane id=":C_15_0" index="0" speed="9.26" length="5.01" shape="626.31,297.29,-7.38 631.28,298.00,-7.38"/>
    </edge>
    <edge id=":C_19" function="internal">
        <lane id=":C_19_0" index="0" speed="9.26" length="14.34" shape="631.28,298.00,-7.38 631.56,298.04,-7.38 635.31,300.29,-7.38 637.56,304.04,-7.38 638.31,309.29,-7.38"/>
    </edge>
    <edge id=":CA_0" function="internal">
        <lane id=":CA_0_0" index="0" speed="3.65" length="4.67" shape="935.60,297.29,-7.38 936.80,298.09,-7.38 937.20,298.89,-7.38 936.80,299.69,-7.38 935.60,300.49,-7.38"/>
    </edge>
    <edge id=":CB_0" function="internal">
        <lane id=":CB_0_0" index="0" speed="3.65" length="4.67" shape="635.11,0.00,-7.38 635.91,-1.20,-7.38 636.71,-1.60,-7.38 637.51,-1.20,-7.38 638.31,0.00,-7.38"/>
    </edge>
    <edge id=":CC_0" function="internal">
        <lane id=":CC_0_0" index="0" speed="3.65" length="4.67" shape="337.83,300.49,-7.38 336.63,299.69,-7.38 336.23,298.89,-7.38 336.63,298.09,-7.38 337.83,297.29,-7.38"/>
    </edge>
    <edge id=":D_0" function="internal">
        <lane id=":D_0_0" index="0" speed="6.51" length="9.03" shape="310.36,611.38,10.28 310.01,608.93,10.28 308.96,607.18,10.28 307.21,606.13,10.28 304.76,605.78,10.28"/>
    </edge>
    <edge id=":D_1" function="internal">
        <lane id=":D_1_0" index="0" speed="35.00" length="27.20" shape="310.36,611.38,10.28 310.36,584.18,10.28"/>
        <lane id=":D_1_1" index="1" speed="35.00" length="27.20" shape="313.56,611.38,10.28 313.56,584.18,10.28"/>
        <lane id=":D_1_2" index="2" speed="35.00" length="27.20" shape="316.76,611.38,10.28 316.76,584.18,10.28"/>
    </edge>
    <edge id=":D_4" function="internal">
        <lane id=":D_4_0" index="0" speed="10.36" length="5.01" shape="316.76,611.38,10.28 317.47,606.41,10.28"/>
    </edge>
    <edge id=":D_20" function="internal">
        <lane id=":D_20_0" index="0" speed="10.36" length="19.50" shape="317.47,606.41,10.28 317.71,604.73,10.28 320.56,599.98,10.28 325.31,597.13,10.28 331.96,596.18,10.28"/>
    </edge>
    <edge id=":D_5" function="internal">
        <lane id=":D_5_0" index="0" speed="6.51" length="9.03" shape="331.96,605.78,10.28 329.51,606.13,10.28 327.76,607.18,10.28 326.71,608.93,10.28 326.36,611.38,10.28"/>
    </edge>
    <edge id=":D_6" function="internal">
        <lane id=":D_6_0" index="0" speed="35.00" length="27.20" shape="331.96,605.78,10.28 304.76,605.78,10.28"/>
        <lane id=":D_6_1" index="1" speed="35.00" length="27.20" shape="331.96,602.58,10.28 304.76,602.58,10.28"/>
        <lane id=":D_6_2" index="2" speed="35.00" length="27.20" shape="331.96,599.38,10.28 304.76,599.38,10.28"/>
    </edge>
    <edge id=":D_9" function="internal">
        <lane id=":D_9_0" index="0" speed="10.36" length="5.01" shape="331.96,599.38,10.28 326.99,598.67,10.28"/>
    </edge>
    <edge id=":D_21" function="internal">
        <lane id=":D_21_0" index="0" speed="10.36" length="19.50" shape="326.99,598.67,10.28 325.31,598.43,10.28 320.56,595.58,10.28 317.71,590.83,10.28 316.76,584.18,10.28"/>
    </edge>
    <edge id=":D_10" function="internal">
        <lane id=":D_10_0" index="0" speed="6.51" length="9.03" shape="326.36,584.18,10.28 326.71,586.63,10.28 327.76,588.38,10.28 329.51,589.43,10.28 331.96,589.78,10.28"/>
    </edge>
    <edge id=":D_11" function="internal">
        <lane id=":D_11_0" index="0" speed="35.00" length="27.20" shape="326.36,584.18,10.28 326.36,611.38,10.28"/>
        <lane id=":D_11_1" index="1" speed="35.00" length="27.20" shape="323.16,584.18,10.28 323.16,611.38,10.28"/>
        <lane id=":D_11_2" index="2" speed="35.00" length="27.20" shape="319.96,584.18,10.28 319.96,611.38,10.28"/>
    </edge>
    <edge id=":D_14" function="internal">
        <lane id=":D_14_0" index="0" speed="10.36" length="5.01" shape="319.96,584.18,10.28 319.25,589.14,10.28"/>
    </edge>
    <edge id=":D_22" function="internal">
        <lane id=":D_22_0" index="0" speed="10.36" length="19.50" shape="319.25,589.14,10.28 319.01,590.83,10.28 316.16,595.58,10.28 311.41,598.43,10.28 304.76,599.38,10.28"/>
    </edge>
    <edge id=":D_15" function="internal">
        <lane id=":D_15_0" index="0" speed="6.51" length="9.03" shape="304.76,589.78,10.28 307.21,589.43,10.28 308.96,588.38,10.28 310.01,586.63,10.28 310.36,584.18,10.28"/>
    </edge>
    <edge id=":D_16" function="internal">
        <lane id=":D_16_0" index="0" speed="35.00" length="27.20" shape="304.76,589.78,10.28 331.96,589.78,10.28"/>
        <lane id=":D_16_1" index="1" speed="35.00" length="27.20" shape="304.76,592.98,10.28 331.96,592.98,10.28"/>
        <lane id=":D_16_2" index="2" speed="35.00" length="27.20" shape="304.76,596.18,10.28 331.96,596.18,10.28"/>
    </edge>
    <edge id=":D_19" function="internal">
        <lane id=":D_19_0" index="0" speed="10.36" length="5.01" shape="304.76,596.18,10.28 309.72,596.89,10.28"/>
    </edge>
    <edge id=":D_23" function="internal">
        <lane id=":D_23_0" index="0" speed="10.36" length="19.50" shape="309.72,596.89,10.28 311.41,597.13,10.28 316.16,599.98,10.28 319.01,604.73,10.28 319.96,611.38,10.28"/>
    </edge>
    <edge id=":DA_0" function="internal">
        <lane id=":DA_0_0" index="0" speed="3.65" length="4.67" shape="316.76,279.42,10.28 317.56,278.22,10.28 318.36,277.82,10.28 319.16,278.22,10.28 319.96,279.42,10.28"/>
    </edge>
    <edge id=":DB_0" function="internal">
        <lane id=":DB_0_0" index="0" speed="3.65" length="4.67" shape="-0.00,599.38,10.28 -1.20,598.58,10.28 -1.60,597.78,10.28 -1.20,596.98,10.28 -0.00,596.18,10.28"/>
    </edge>
    <edge id=":DC_0" function="internal">
        <lane id=":DC_0_0" index="0" speed="3.65" length="4.67" shape="319.96,916.13,10.28 319.16,917.33,10.28 318.36,917.73,10.28 317.56,917.33,10.28 316.76,916.13,10.28"/>
    </edge>
    <edge id=":TL_0" function="internal">
        <lane id=":TL_0_0" index="0" speed="6.51" length="9.03" shape="631.91,611.38 631.56,608.93 630.51,607.18 628.76,606.13 626.31,605.78"/>
    </edge>
    <edge id=":TL_1" function="internal">
        <lane id=":TL_1_0" index="0" speed="30.00" length="27.20" shape="631.91,611.38 631.91,584.18"/>
    </edge>
    <edge id=":TL_2" function="internal">
        <lane id=":TL_2_0" index="0" speed="9.84" length="8.98" shape="635.11,611.38 635.86,604.73 636.84,602.66"/>
    </edge>
    <edge id=":TL_16" function="internal">
        <lane id=":TL_16_0" index="0" speed="9.84" length="13.01" shape="636.84,602.66 638.11,599.98 641.86,597.13 647.11,596.18"/>
    </edge>
    <edge id=":TL_3" function="internal">
        <lane id=":TL_3_0" index="0" speed="7.33" length="11.73" shape="647.11,605.78 643.26,606.13 640.51,607.18 638.86,608.93 638.31,611.38"/>
    </edge>
    <edge id=":TL_4" function="internal">
        <lane id=":TL_4_0" index="0" speed="35.00" length="20.80" shape="647.11,605.78 626.31,605.78"/>
        <lane id=":TL_4_1" index="1" speed="35.00" length="20.80" shape="647.11,602.58 626.31,602.58"/>
        <lane id=":TL_4_2" index="2" speed="35.00" length="20.80" shape="647.11,599.38 626.31,599.38"/>
    </edge>
    <edge id=":TL_7" function="internal">
        <lane id=":TL_7_0" index="0" speed="9.84" length="4.01" shape="647.11,599.38 643.17,598.66"/>
    </edge>
    <edge id=":TL_17" function="internal">
        <lane id=":TL_17_0" index="0" speed="9.84" length="17.98" shape="643.17,598.66 641.86,598.43 638.11,595.58 635.86,590.83 635.11,584.18"/>
    </edge>
    <edge id=":TL_8" function="internal">
        <lane id=":TL_8_0" index="0" speed="6.51" length="9.03" shape="641.51,584.18 641.86,586.63 642.91,588.38 644.66,589.43 647.11,589.78"/>
    </edge>
    <edge id=":TL_9" function="internal">
        <lane id=":TL_9_0" index="0" speed="30.00" length="27.41" shape="641.51,584.18 641.01,591.94 639.91,599.65 638.81,606.42 638.31,611.38"/>
    </edge>
    <edge id=":TL_10" function="internal">
        <lane id=":TL_10_0" index="0" speed="9.84" length="12.79" shape="638.31,584.18 637.56,590.83 635.31,595.58 634.65,596.08"/>
    </edge>
    <edge id=":TL_18" function="internal">
        <lane id=":TL_18_0" index="0" speed="9.84" length="9.21" shape="634.65,596.08 631.56,598.43 626.31,599.38"/>
    </edge>
    <edge id=":TL_11" function="internal">
        <lane id=":TL_11_0" index="0" speed="6.51" length="9.03" shape="626.31,589.78 628.76,589.43 630.51,588.38 631.56,586.63 631.91,584.18"/>
    </edge>
    <edge id=":TL_12" function="internal">
        <lane id=":TL_12_0" index="0" speed="35.00" length="20.80" shape="626.31,589.78 647.11,589.78"/>
        <lane id=":TL_12_1" index="1" speed="35.00" length="20.80" shape="626.31,592.98 647.11,592.98"/>
        <lane id=":TL_12_2" index="2" speed="35.00" length="20.80" shape="626.31,596.18 647.11,596.18"/>
    </edge>
    <edge id=":TL_15" function="internal">
        <lane id=":TL_15_0" index="0" speed="9.84" length="4.01" shape="626.31,596.18 630.26,596.89"/>
    </edge>
    <edge id=":TL_19" function="internal">
        <lane id=":TL_19_0" index="0" speed="9.84" length="17.98" shape="630.26,596.89 631.56,597.13 635.31,599.98 637.56,604.73 638.31,611.38"/>
    </edge>

    <edge id="A2AA" from="A" to="AA" priority="-1">
        <lane id="A2AA_0" index="0" speed="30.00" length="287.55" shape="626.31,900.53,-7.81 338.77,900.53,-7.81"/>
        <lane id="A2AA_1" index="1" speed="30.00" length="287.55" shape="626.31,897.33,-7.81 338.77,897.33,-7.81"/>
    </edge>
    <edge id="A2AB" from="A" to="AB" priority="-1">
        <lane id="A2AB_0" index="0" speed="30.00" length="287.55" shape="641.51,906.13,-7.81 641.51,1193.67,-7.81"/>
        <lane id="A2AB_1" index="1" speed="30.00" length="287.55" shape="638.31,906.13,-7.81 638.31,1193.67,-7.81"/>
    </edge>
    <edge id="A2AC" from="A" to="AC" priority="-1">
        <lane id="A2AC_0" index="0" speed="30.00" length="287.55" shape="647.11,890.93,-7.81 934.66,890.93,-7.81"/>
        <lane id="A2AC_1" index="1" speed="30.00" length="287.55" shape="647.11,894.13,-7.81 934.66,894.13,-7.81"/>
    </edge>
    <edge id="A2TL" from="A" to="TL" priority="-1">
        <lane id="A2TL_0" index="0" speed="30.00" length="274.06" shape="631.91,885.33,-7.81 631.91,611.38"/>
        <lane id="A2TL_1" index="1" speed="30.00" length="274.06" shape="635.11,885.33,-7.81 635.11,611.38"/>
    </edge>
    <edge id="AA2A" from="AA" to="A" priority="-1">
        <lane id="AA2A_0" index="0" speed="30.00" length="287.55" shape="338.77,894.13,-7.81 626.31,894.13,-7.81"/>
    </edge>
    <edge id="AB2A" from="AB" to="A" priority="-1">
        <lane id="AB2A_0" index="0" speed="30.00" length="287.55" shape="635.11,1193.67,-7.81 635.11,906.13,-7.81"/>
    </edge>
    <edge id="AC2A" from="AC" to="A" priority="-1">
        <lane id="AC2A_0" index="0" speed="30.00" length="287.55" shape="934.66,897.33,-7.81 647.11,897.33,-7.81"/>
    </edge>
    <edge id="B2BA" from="B" to="BA" priority="-1">
        <lane id="B2BA_0" index="0" speed="35.00" length="303.06" shape="961.38,611.38,-7.43 961.38,914.44,-7.43"/>
        <lane id="B2BA_1" index="1" speed="35.00" length="303.06" shape="958.18,611.38,-7.43 958.18,914.44,-7.43"/>
        <lane id="B2BA_2" index="2" speed="35.00" length="303.06" shape="954.98,611.38,-7.43 954.98,914.44,-7.43"/>
    </edge>
    <edge id="B2BB" from="B" to="BB" priority="-1">
        <lane id="B2BB_0" index="0" speed="35.00" length="303.06" shape="966.98,589.78,-7.43 1270.04,589.78,-7.43"/>
        <lane id="B2BB_1" index="1" speed="35.00" length="303.06" shape="966.98,592.98,-7.43 1270.04,592.98,-7.43"/>
        <lane id="B2BB_2" index="2" speed="35.00" length="303.06" shape="966.98,596.18,-7.43 1270.04,596.18,-7.43"/>
    </edge>
    <edge id="B2BC" from="B" to="BC" priority="-1">
        <lane id="B2BC_0" index="0" speed="35.00" length="303.06" shape="945.38,584.18,-7.43 945.38,281.11,-7.43"/>
        <lane id="B2BC_1" index="1" speed="35.00" length="303.06" shape="948.58,584.18,-7.43 948.58,281.11,-7.43"/>
        <lane id="B2BC_2" index="2" speed="35.00" length="303.06" shape="951.78,584.18,-7.43 951.78,281.11,-7.43"/>
    </edge>
    <edge id="B2TL" from="B" to="TL" priority="-1">
        <lane id="B2TL_0" index="0" speed="35.00" length="292.76" shape="939.78,605.78,-7.43 647.11,605.78"/>
        <lane id="B2TL_1" index="1" speed="35.00" length="292.76" shape="939.78,602.58,-7.43 647.11,602.58"/>
        <lane id="B2TL_2" index="2" speed="35.00" length="292.76" shape="939.78,599.38,-7.43 647.11,599.38"/>
    </edge>
    <edge id="BA2B" from="BA" to="B" priority="-1">
        <lane id="BA2B_0" index="0" speed="35.00" length="303.06" shape="945.38,914.44,-7.43 945.38,611.38,-7.43"/>
        <lane id="BA2B_1" index="1" speed="35.00" length="303.06" shape="948.58,914.44,-7.43 948.58,611.38,-7.43"/>
        <lane id="BA2B_2" index="2" speed="35.00" length="303.06" shape="951.78,914.44,-7.43 951.78,611.38,-7.43"/>
    </edge>
    <edge id="BB2B" from="BB" to="B" priority="-1">
        <lane id="BB2B_0" index="0" speed="35.00" length="303.06" shape="1270.04,605.78,-7.43 966.98,605.78,-7.43"/>
        <lane id="BB2B_1" index="1" speed="35.00" length="303.06" shape="1270.04,602.58,-7.43 966.98,602.58,-7.43"/>
        <lane id="BB2B_2" index="2" speed="35.00" length="303.06" shape="1270.04,599.38,-7.43 966.98,599.38,-7.43"/>
    </edge>
    <edge id="BC2B" from="BC" to="B" priority="-1">
        <lane id="BC2B_0" index="0" speed="35.00" length="303.06" shape="961.38,281.11,-7.43 961.38,584.18,-7.43"/>
        <lane id="BC2B_1" index="1" speed="35.00" length="303.06" shape="958.18,281.11,-7.43 958.18,584.18,-7.43"/>
        <lane id="BC2B_2" index="2" speed="35.00" length="303.06" shape="954.98,281.11,-7.43 954.98,584.18,-7.43"/>
    </edge>
    <edge id="C2CA" from="C" to="CA" priority="-1">
        <lane id="C2CA_0" index="0" speed="30.00" length="288.49" shape="647.11,294.09,-7.38 935.60,294.09,-7.38"/>
        <lane id="C2CA_1" index="1" speed="30.00" length="288.49" shape="647.11,297.29,-7.38 935.60,297.29,-7.38"/>
    </edge>
    <edge id="C2CB" from="C" to="CB" priority="-1">
        <lane id="C2CB_0" index="0" speed="30.00" length="288.49" shape="631.91,288.49,-7.38 631.91,0.00,-7.38"/>
        <lane id="C2CB_1" index="1" speed="30.00" length="288.49" shape="635.11,288.49,-7.38 635.11,0.00,-7.38"/>
    </edge>
    <edge id="C2CC" from="C" to="CC" priority="-1">
        <lane id="C2CC_0" index="0" speed="30.00" length="288.49" shape="626.31,303.69,-7.38 337.83,303.69,-7.38"/>
        <lane id="C2CC_1" index="1" speed="30.00" length="288.49" shape="626.31,300.49,-7.38 337.83,300.49,-7.38"/>
    </edge>
    <edge id="C2TL" from="C" to="TL" priority="-1">
        <lane id="C2TL_0" index="0" speed="30.00" length="274.99" shape="641.51,309.29,-7.38 641.51,584.18"/>
        <lane id="C2TL_1" index="1" speed="30.00" length="274.99" shape="638.31,309.29,-7.38 638.31,584.18"/>
    </edge>
    <edge id="CA2C" from="CA" to="C" priority="-1">
        <lane id="CA2C_0" index="0" speed="30.00" length="288.49" shape="935.60,303.69,-7.38 647.11,303.69,-7.38"/>
        <lane id="CA2C_1" index="1" speed="30.00" length="288.49" shape="935.60,300.49,-7.38 647.11,300.49,-7.38"/>
    </edge>
    <edge id="CB2C" from="CB" to="C" priority="-1">
        <lane id="CB2C_0" index="0" speed="30.00" length="288.49" shape="641.51,0.00,-7.38 641.51,288.49,-7.38"/>
        <lane id="CB2C_1" index="1" speed="30.00" length="288.49" shape="638.31,0.00,-7.38 638.31,288.49,-7.38"/>
    </edge>
    <edge id="CC2C" from="CC" to="C" priority="-1">
        <lane id="CC2C_0" index="0" speed="30.00" length="288.49" shape="337.83,294.09,-7.38 626.31,294.09,-7.38"/>
        <lane id="CC2C_1" index="1" speed="30.00" length="288.49" shape="337.83,297.29,-7.38 626.31,297.29,-7.38"/>
    </edge>
    <edge id="D2DA" from="D" to="DA" priority="-1">
        <lane id="D2DA_0" index="0" speed="35.00" length="304.76" shape="310.36,584.18,10.28 310.36,279.42,10.28"/>
        <lane id="D2DA_1" index="1" speed="35.00" length="304.76" shape="313.56,584.18,10.28 313.56,279.42,10.28"/>
        <lane id="D2DA_2" index="2" speed="35.00" length="304.76" shape="316.76,584.18,10.28 316.76,279.42,10.28"/>
    </edge>
    <edge id="D2DB" from="D" to="DB" priority="-1">
        <lane id="D2DB_0" index="0" speed="35.00" length="304.76" shape="304.76,605.78,10.28 -0.00,605.78,10.28"/>
        <lane id="D2DB_1" index="1" speed="35.00" length="304.76" shape="304.76,602.58,10.28 -0.00,602.58,10.28"/>
        <lane id="D2DB_2" index="2" speed="35.00" length="304.76" shape="304.76,599.38,10.28 -0.00,599.38,10.28"/>
    </edge>
    <edge id="D2DC" from="D" to="DC" priority="-1">
        <lane id="D2DC_0" index="0" speed="35.00" length="304.76" shape="326.36,611.38,10.28 326.36,916.13,10.28"/>
        <lane id="D2DC_1" index="1" speed="35.00" length="304.76" shape="323.16,611.38,10.28 323.16,916.13,10.28"/>
        <lane id="D2DC_2" index="2" speed="35.00" length="304.76" shape="319.96,611.38,10.28 319.96,916.13,10.28"/>
    </edge>
    <edge id="D2TL" from="D" to="TL" priority="-1">
        <lane id="D2TL_0" index="0" speed="35.00" length="294.54" shape="331.96,589.78,10.28 626.31,589.78"/>
        <lane id="D2TL_1" index="1" speed="35.00" length="294.54" shape="331.96,592.98,10.28 626.31,592.98"/>
        <lane id="D2TL_2" index="2" speed="35.00" length="294.54" shape="331.96,596.18,10.28 626.31,596.18"/>
    </edge>
    <edge id="DA2D" from="DA" to="D" priority="-1">
        <lane id="DA2D_0" index="0" speed="35.00" length="304.76" shape="326.36,279.42,10.28 326.36,584.18,10.28"/>
        <lane id="DA2D_1" index="1" speed="35.00" length="304.76" shape="323.16,279.42,10.28 323.16,584.18,10.28"/>
        <lane id="DA2D_2" index="2" speed="35.00" length="304.76" shape="319.96,279.42,10.28 319.96,584.18,10.28"/>
    </edge>
    <edge id="DB2D" from="DB" to="D" priority="-1">
        <lane id="DB2D_0" index="0" speed="35.00" length="304.76" shape="-0.00,589.78,10.28 304.76,589.78,10.28"/>
        <lane id="DB2D_1" index="1" speed="35.00" length="304.76" shape="-0.00,592.98,10.28 304.76,592.98,10.28"/>
        <lane id="DB2D_2" index="2" speed="35.00" length="304.76" shape="-0.00,596.18,10.28 304.76,596.18,10.28"/>
    </edge>
    <edge id="DC2D" from="DC" to="D" priority="-1">