<?xml version="1.0" encoding="UTF-8"?>

<!-- generated on 2022-10-11 16:45:17 by Eclipse SUMO netconvert Version 1.14.1
<configuration xmlns:xsi="http://www.w3.org/2001/XMLSchema-instance" xsi:noNamespaceSchemaLocation="http://sumo.dlr.de/xsd/netconvertConfiguration.xsd">

    <input>
        <node-files value="../data/salt-lake-city/nodes.nod.xml"/>
        <edge-files value="../data/salt-lake-city/edges.edg.xml"/>
        <connection-files value="../data/salt-lake-city/connections.con.xml"/>
    </input>

    <output>
        <output-file value="../data/salt-lake-city/sumo/net/225.net.xml"/>
    </output>

    <tls_building>
        <tls.minor-left.max-speed value="1"/>
    </tls_building>

    <report>
        <verbose value="true"/>
    </report>

</configuration>
-->

<net version="1.9" junctionCornerDetail="5" limitTurnSpeed="5.50" xmlns:xsi="http://www.w3.org/2001/XMLSchema-instance" xsi:noNamespaceSchemaLocation="http://sumo.dlr.de/xsd/net_file.xsd">

    <location netOffset="696.25,593.54" convBoundary="0.00,0.00,1313.74,1202.36" origBoundary="-696.25,-593.54,617.49,608.82" projParameter="!"/>

    <edge id=":A_0" function="internal">
        <lane id=":A_0_0" index="0" speed="6.51" length="9.03" shape="688.25,911.55,-6.96 687.90,909.10,-6.96 686.85,907.35,-6.96 685.10,906.30,-6.96 682.65,905.95,-6.96"/>
    </edge>
    <edge id=":A_1" function="internal">
        <lane id=":A_1_0" index="0" speed="30.00" length="27.20" shape="688.25,911.55,-6.96 688.25,884.35,-6.96"/>
        <lane id=":A_1_1" index="1" speed="30.00" length="27.20" shape="691.45,911.55,-6.96 691.45,884.35,-6.96"/>
        <lane id=":A_1_2" index="2" speed="30.00" length="27.20" shape="694.65,911.55,-6.96 694.65,884.35,-6.96"/>
    </edge>
    <edge id=":A_4" function="internal">
        <lane id=":A_4_0" index="0" speed="10.36" length="5.01" shape="694.65,911.55,-6.96 695.36,906.59,-6.96"/>
    </edge>
    <edge id=":A_20" function="internal">
        <lane id=":A_20_0" index="0" speed="10.36" length="19.50" shape="695.36,906.59,-6.96 695.60,904.90,-6.96 698.45,900.15,-6.96 703.20,897.30,-6.96 709.85,896.35,-6.96"/>
    </edge>
    <edge id=":A_5" function="internal">
        <lane id=":A_5_0" index="0" speed="6.51" length="9.03" shape="709.85,905.95,-6.96 707.40,906.30,-6.96 705.65,907.35,-6.96 704.60,909.10,-6.96 704.25,911.55,-6.96"/>
    </edge>
    <edge id=":A_6" function="internal">
        <lane id=":A_6_0" index="0" speed="30.00" length="27.20" shape="709.85,905.95,-6.96 682.65,905.95,-6.96"/>
        <lane id=":A_6_1" index="1" speed="30.00" length="27.20" shape="709.85,902.75,-6.96 682.65,902.75,-6.96"/>
        <lane id=":A_6_2" index="2" speed="30.00" length="27.20" shape="709.85,899.55,-6.96 682.65,899.55,-6.96"/>
    </edge>
    <edge id=":A_9" function="internal">
        <lane id=":A_9_0" index="0" speed="10.36" length="5.01" shape="709.85,899.55,-6.96 704.89,898.84,-6.96"/>
    </edge>
    <edge id=":A_21" function="internal">
        <lane id=":A_21_0" index="0" speed="10.36" length="19.50" shape="704.89,898.84,-6.96 703.20,898.60,-6.96 698.45,895.75,-6.96 695.60,891.00,-6.96 694.65,884.35,-6.96"/>
    </edge>
    <edge id=":A_10" function="internal">
        <lane id=":A_10_0" index="0" speed="6.51" length="9.03" shape="704.25,884.35,-6.96 704.60,886.80,-6.96 705.65,888.55,-6.96 707.40,889.60,-6.96 709.85,889.95,-6.96"/>
    </edge>
    <edge id=":A_11" function="internal">
        <lane id=":A_11_0" index="0" speed="30.00" length="27.20" shape="704.25,884.35,-6.96 704.25,911.55,-6.96"/>
        <lane id=":A_11_1" index="1" speed="30.00" length="27.20" shape="701.05,884.35,-6.96 701.05,911.55,-6.96"/>
        <lane id=":A_11_2" index="2" speed="30.00" length="27.20" shape="697.85,884.35,-6.96 697.85,911.55,-6.96"/>
    </edge>
    <edge id=":A_14" function="internal">
        <lane id=":A_14_0" index="0" speed="10.36" length="5.01" shape="697.85,884.35,-6.96 697.14,889.32,-6.96"/>
    </edge>
    <edge id=":A_22" function="internal">
        <lane id=":A_22_0" index="0" speed="10.36" length="19.50" shape="697.14,889.32,-6.96 696.90,891.00,-6.96 694.05,895.75,-6.96 689.30,898.60,-6.96 682.65,899.55,-6.96"/>
    </edge>
    <edge id=":A_15" function="internal">
        <lane id=":A_15_0" index="0" speed="6.51" length="9.03" shape="682.65,889.95,-6.96 685.10,889.60,-6.96 686.85,888.55,-6.96 687.90,886.80,-6.96 688.25,884.35,-6.96"/>
    </edge>
    <edge id=":A_16" function="internal">
        <lane id=":A_16_0" index="0" speed="30.00" length="27.20" shape="682.65,889.95,-6.96 709.85,889.95,-6.96"/>
        <lane id=":A_16_1" index="1" speed="30.00" length="27.20" shape="682.65,893.15,-6.96 709.85,893.15,-6.96"/>
        <lane id=":A_16_2" index="2" speed="30.00" length="27.20" shape="682.65,896.35,-6.96 709.85,896.35,-6.96"/>
    </edge>
    <edge id=":A_19" function="internal">
        <lane id=":A_19_0" index="0" speed="10.36" length="5.01" shape="682.65,896.35,-6.96 687.62,897.06,-6.96"/>
    </edge>
    <edge id=":A_23" function="internal">
        <lane id=":A_23_0" index="0" speed="10.36" length="19.50" shape="687.62,897.06,-6.96 689.30,897.30,-6.96 694.05,900.15,-6.96 696.90,904.90,-6.96 697.85,911.55,-6.96"/>
    </edge>
    <edge id=":AA_0" function="internal">
        <lane id=":AA_0_0" index="0" speed="3.65" length="4.67" shape="391.84,899.55,-6.96 390.64,898.75,-6.96 390.24,897.95,-6.96 390.64,897.15,-6.96 391.84,896.35,-6.96"/>
    </edge>
    <edge id=":AB_0" function="internal">
        <lane id=":AB_0_0" index="0" speed="3.65" length="4.67" shape="697.85,1202.36,-6.96 697.05,1203.56,-6.96 696.25,1203.96,-6.96 695.45,1203.56,-6.96 694.65,1202.36,-6.96"/>
    </edge>
    <edge id=":AC_0" function="internal">
        <lane id=":AC_0_0" index="0" speed="3.65" length="4.67" shape="1000.67,896.35,-6.96 1001.87,897.15,-6.96 1002.27,897.95,-6.96 1001.87,898.75,-6.96 1000.67,899.55,-6.96"/>
    </edge>
    <edge id=":B_0" function="internal">
        <lane id=":B_0_0" index="0" speed="8.10" length="14.57" shape="1000.20,610.34,-8.66 999.45,607.89,-8.66 997.20,606.14,-8.66 993.45,605.09,-8.66 988.20,604.74,-8.66"/>
    </edge>
    <edge id=":B_1" function="internal">
        <lane id=":B_1_0" index="0" speed="30.00" length="34.33" shape="1000.20,610.34,-8.66 999.20,603.28,-8.66 997.00,596.20,-8.66 994.80,587.80,-8.66 993.80,576.74,-8.66"/>
        <lane id=":B_1_1" index="1" speed="30.00" length="34.33" shape="1003.40,610.34,-8.66 1002.40,603.28,-8.66 1000.20,596.20,-8.66 998.00,587.80,-8.66 997.00,576.74,-8.66"/>
    </edge>
    <edge id=":B_3" function="internal">
        <lane id=":B_3_0" index="0" speed="11.36" length="15.40" shape="1003.40,610.34,-8.66 1004.55,602.29,-8.66 1008.00,596.54,-8.66 1008.48,596.25,-8.66"/>
    </edge>
    <edge id=":B_16" function="internal">
        <lane id=":B_16_0" index="0" speed="11.36" length="14.27" shape="1008.48,596.25,-8.66 1013.75,593.09,-8.66 1021.80,591.94,-8.66"/>
    </edge>
    <edge id=":B_4" function="internal">
        <lane id=":B_4_0" index="0" speed="8.10" length="14.57" shape="1021.80,598.34,-8.66 1019.35,599.09,-8.66 1017.60,601.34,-8.66 1016.55,605.09,-8.66 1016.20,610.34,-8.66"/>
    </edge>
    <edge id=":B_5" function="internal">
        <lane id=":B_5_0" index="0" speed="30.00" length="34.33" shape="1021.80,598.34,-8.66 1014.73,599.34,-8.66 1007.66,601.54,-8.66 999.26,603.74,-8.66 988.20,604.74,-8.66"/>
        <lane id=":B_5_1" index="1" speed="30.00" length="34.33" shape="1021.80,595.14,-8.66 1014.73,596.14,-8.66 1007.66,598.34,-8.66 999.26,600.54,-8.66 988.20,601.54,-8.66"/>
    </edge>
    <edge id=":B_7" function="internal">
        <lane id=":B_7_0" index="0" speed="11.36" length="15.40" shape="1021.80,595.14,-8.66 1013.75,593.99,-8.66 1008.00,590.54,-8.66 1007.71,590.06,-8.66"/>
    </edge>
    <edge id=":B_17" function="internal">
        <lane id=":B_17_0" index="0" speed="11.36" length="14.27" shape="1007.71,590.06,-8.66 1004.55,584.79,-8.66 1003.40,576.74,-8.66"/>
    </edge>
    <edge id=":B_8" function="internal">
        <lane id=":B_8_0" index="0" speed="8.10" length="14.57" shape="1009.80,576.74,-8.66 1010.55,579.19,-8.66 1012.80,580.94,-8.66 1016.55,581.99,-8.66 1021.80,582.34,-8.66"/>
    </edge>
    <edge id=":B_9" function="internal">
        <lane id=":B_9_0" index="0" speed="30.00" length="34.33" shape="1009.80,576.74,-8.66 1010.80,583.80,-8.66 1013.00,590.88,-8.66 1015.20,599.28,-8.66 1016.20,610.34,-8.66"/>
        <lane id=":B_9_1" index="1" speed="30.00" length="34.33" shape="1006.60,576.74,-8.66 1007.60,583.80,-8.66 1009.80,590.88,-8.66 1012.00,599.28,-8.66 1013.00,610.34,-8.66"/>
    </edge>
    <edge id=":B_11" function="internal">
        <lane id=":B_11_0" index="0" speed="11.36" length="15.40" shape="1006.60,576.74,-8.66 1005.45,584.79,-8.66 1002.00,590.54,-8.66 1001.51,590.83,-8.66"/>
    </edge>
    <edge id=":B_18" function="internal">
        <lane id=":B_18_0" index="0" speed="11.36" length="14.27" shape="1001.51,590.83,-8.66 996.25,593.99,-8.66 988.20,595.14,-8.66"/>
    </edge>
    <edge id=":B_12" function="internal">
        <lane id=":B_12_0" index="0" speed="8.10" length="14.57" shape="988.20,588.74,-8.66 990.65,587.99,-8.66 992.40,585.74,-8.66 993.45,581.99,-8.66 993.80,576.74,-8.66"/>
    </edge>
    <edge id=":B_13" function="internal">
        <lane id=":B_13_0" index="0" speed="30.00" length="34.33" shape="988.20,588.74,-8.66 995.26,587.74,-8.66 1002.33,585.54,-8.66 1010.74,583.34,-8.66 1021.80,582.34,-8.66"/>
        <lane id=":B_13_1" index="1" speed="30.00" length="34.33" shape="988.20,591.94,-8.66 995.26,590.94,-8.66 1002.33,588.74,-8.66 1010.74,586.54,-8.66 1021.80,585.54,-8.66"/>
    </edge>
    <edge id=":B_15" function="internal">
        <lane id=":B_15_0" index="0" speed="11.36" length="15.40" shape="988.20,591.94,-8.66 996.25,593.09,-8.66 1002.00,596.54,-8.66 1002.29,597.03,-8.66"/>
    </edge>
    <edge id=":B_19" function="internal">
        <lane id=":B_19_0" index="0" speed="11.36" length="14.27" shape="1002.29,597.03,-8.66 1005.45,602.29,-8.66 1006.60,610.34,-8.66"/>
    </edge>
    <edge id=":BA_0" function="internal">
        <lane id=":BA_0_0" index="0" speed="3.65" length="4.67" shape="1006.60,902.28,-8.66 1005.80,903.48,-8.66 1005.00,903.88,-8.66 1004.20,903.48,-8.66 1003.40,902.28,-8.66"/>
    </edge>
    <edge id=":BB_0" function="internal">
        <lane id=":BB_0_0" index="0" speed="3.65" length="4.67" shape="1313.74,591.94,-8.66 1314.94,592.74,-8.66 1315.34,593.54,-8.66 1314.94,594.34,-8.66 1313.74,595.14,-8.66"/>
    </edge>
    <edge id=":BC_0" function="internal">
        <lane id=":BC_0_0" index="0" speed="3.65" length="4.67" shape="1003.40,284.80,-8.66 1004.20,283.60,-8.66 1005.00,283.20,-8.66 1005.80,283.60,-8.66 1006.60,284.80,-8.66"/>
    </edge>
    <edge id=":C_0" function="internal">
        <lane id=":C_0_0" index="0" speed="7.33" length="11.73" shape="691.45,310.37,30.97 690.90,307.92,30.97 689.25,306.17,30.97 686.50,305.12,30.97 682.65,304.77,30.97"/>
    </edge>
    <edge id=":C_1" function="internal">
        <lane id=":C_1_0" index="0" speed="30.00" length="27.43" shape="691.45,310.37,30.97 690.95,303.83,30.97 689.85,298.16,30.97 688.75,291.79,30.97 688.25,283.17,30.97"/>
        <lane id=":C_1_1" index="1" speed="30.00" length="27.43" shape="694.65,310.37,30.97 694.15,303.83,30.97 693.05,298.16,30.97 691.95,291.79,30.97 691.45,283.17,30.97"/>
    </edge>
    <edge id=":C_3" function="internal">
        <lane id=":C_3_0" index="0" speed="10.36" length="10.84" shape="694.65,310.37,30.97 695.60,303.72,30.97 697.73,300.18,30.97"/>
    </edge>
    <edge id=":C_16" function="internal">
        <lane id=":C_16_0" index="0" speed="10.36" length="13.67" shape="697.73,300.18,30.97 698.45,298.97,30.97 703.20,296.12,30.97 709.85,295.17,30.97"/>
    </edge>
    <edge id=":C_4" function="internal">
        <lane id=":C_4_0" index="0" speed="7.33" length="11.73" shape="709.85,301.57,30.97 707.40,302.12,30.97 705.65,303.77,30.97 704.60,306.52,30.97 704.25,310.37,30.97"/>
    </edge>
    <edge id=":C_5" function="internal">
        <lane id=":C_5_0" index="0" speed="30.00" length="27.43" shape="709.85,301.57,30.97 703.31,302.07,30.97 697.64,303.17,30.97 691.27,304.27,30.97 682.65,304.77,30.97"/>
        <lane id=":C_5_1" index="1" speed="30.00" length="27.43" shape="709.85,298.37,30.97 703.31,298.87,30.97 697.64,299.97,30.97 691.27,301.07,30.97 682.65,301.57,30.97"/>
    </edge>
    <edge id=":C_7" function="internal">
        <lane id=":C_7_0" index="0" speed="10.36" length="10.84" shape="709.85,298.37,30.97 703.20,297.42,30.97 699.67,295.30,30.97"/>
    </edge>
    <edge id=":C_17" function="internal">
        <lane id=":C_17_0" index="0" speed="10.36" length="13.67" shape="699.67,295.30,30.97 698.45,294.57,30.97 695.60,289.82,30.97 694.65,283.17,30.97"/>
    </edge>
    <edge id=":C_8" function="internal">
        <lane id=":C_8_0" index="0" speed="7.33" length="11.73" shape="701.05,283.17,30.97 701.60,285.62,30.97 703.25,287.37,30.97 706.00,288.42,30.97 709.85,288.77,30.97"/>
    </edge>
    <edge id=":C_9" function="internal">
        <lane id=":C_9_0" index="0" speed="30.00" length="27.43" shape="701.05,283.17,30.97 701.55,289.71,30.97 702.65,295.39,30.97 703.75,301.75,30.97 704.25,310.37,30.97"/>
        <lane id=":C_9_1" index="1" speed="30.00" length="27.43" shape="697.85,283.17,30.97 698.35,289.71,30.97 699.45,295.39,30.97 700.55,301.75,30.97 701.05,310.37,30.97"/>
    </edge>
    <edge id=":C_11" function="internal">
        <lane id=":C_11_0" index="0" speed="10.36" length="10.84" shape="697.85,283.17,30.97 696.90,289.82,30.97 694.78,293.36,30.97"/>
    </edge>
    <edge id=":C_18" function="internal">
        <lane id=":C_18_0" index="0" speed="10.36" length="13.67" shape="694.78,293.36,30.97 694.05,294.57,30.97 689.30,297.42,30.97 682.65,298.37,30.97"/>
    </edge>
    <edge id=":C_12" function="internal">
        <lane id=":C_12_0" index="0" speed="7.33" length="11.73" shape="682.65,291.97,30.97 685.10,291.42,30.97 686.85,289.77,30.97 687.90,287.02,30.97 688.25,283.17,30.97"/>
    </edge>
    <edge id=":C_13" function="internal">
        <lane id=":C_13_0" index="0" speed="30.00" length="27.43" shape="682.65,291.97,30.97 689.20,291.47,30.97 694.87,290.37,30.97 701.23,289.27,30.97 709.85,288.77,30.97"/>
        <lane id=":C_13_1" index="1" speed="30.00" length="27.43" shape="682.65,295.17,30.97 689.20,294.67,30.97 694.87,293.57,30.97 701.23,292.47,30.97 709.85,291.97,30.97"/>
    </edge>
    <edge id=":C_15" function="internal">
        <lane id=":C_15_0" index="0" speed="10.36" length="10.84" shape="682.65,295.17,30.97 689.30,296.12,30.97 692.84,298.24,30.97"/>
    </edge>
    <edge id=":C_19" function="internal">
        <lane id=":C_19_0" index="0" speed="10.36" length="13.67" shape="692.84,298.24,30.97 694.05,298.97,30.97 696.90,303.72,30.97 697.85,310.37,30.97"/>
    </edge>
    <edge id=":CA_0" function="internal">
        <lane id=":CA_0_0" index="0" speed="3.65" length="4.67" shape="993.02,295.17,30.97 994.22,295.97,30.97 994.62,296.77,30.97 994.22,297.57,30.97 993.02,298.37,30.97"/>
    </edge>
    <edge id=":CB_0" function="internal">
        <lane id=":CB_0_0" index="0" speed="3.65" length="4.67" shape="694.65,0.00,30.97 695.45,-1.20,30.97 696.25,-1.60,30.97 697.05,-1.20,30.97 697.85,0.00,30.97"/>
    </edge>
    <edge id=":CC_0" function="internal">
        <lane id=":CC_0_0" index="0" speed="3.65" length="4.67" shape="399.48,298.37,30.97 398.28,297.57,30.97 397.88,296.77,30.97 398.28,295.97,30.97 399.48,295.17,30.97"/>
    </edge>
    <edge id=":D_0" function="internal">
        <lane id=":D_0_0" index="0" speed="6.51" length="9.03" shape="346.53,600.74,11.25 346.18,598.29,11.25 345.13,596.54,11.25 343.38,595.49,11.25 340.93,595.14,11.25"/>
    </edge>
    <edge id=":D_1" function="internal">
        <lane id=":D_1_0" index="0" speed="25.00" length="14.40" shape="346.53,600.74,11.25 346.53,586.34,11.25"/>
    </edge>
    <edge id=":D_2" function="internal">
        <lane id=":D_2_0" index="0" speed="6.51" length="9.03" shape="355.33,595.14,11.25 352.88,595.49,11.25 351.13,596.54,11.25 350.08,598.29,11.25 349.73,600.74,11.25"/>
    </edge>
    <edge id=":D_3" function="internal">
        <lane id=":D_3_0" index="0" speed="25.00" length="14.40" shape="355.33,595.14,11.25 340.93,595.14,11.25"/>
    </edge>
    <edge id=":D_4" function="internal">
        <lane id=":D_4_0" index="0" speed="6.51" length="9.03" shape="349.73,586.34,11.25 350.08,588.79,11.25 351.13,590.54,11.25 352.88,591.59,11.25 355.33,591.94,11.25"/>
    </edge>
    <edge id=":D_5" function="internal">
        <lane id=":D_5_0" index="0" speed="25.00" length="14.40" shape="349.73,586.34,11.25 349.73,600.74,11.25"/>
    </edge>
    <edge id=":D_6" function="internal">
        <lane id=":D_6_0" index="0" speed="6.51" length="9.03" shape="340.93,591.94,11.25 343.38,591.59,11.25 345.13,590.54,11.25 346.18,588.79,11.25 346.53,586.34,11.25"/>
    </edge>
    <edge id=":D_7" function="internal">
        <lane id=":D_7_0" index="0" speed="25.00" length="14.40" shape="340.93,591.94,11.25 355.33,591.94,11.25"/>
    </edge>
    <edge id=":DA_0" function="internal">
        <lane id=":DA_0_0" index="0" speed="3.65" length="4.67" shape="346.53,245.41,11.25 347.33,244.21,11.25 348.13,243.81,11.25 348.93,244.21,11.25 349.73,245.41,11.25"/>
    </edge>
    <edge id=":DB_0" function="internal">
        <lane id=":DB_0_0" index="0" speed="3.65" length="4.67" shape="-0.00,595.14,11.25 -1.20,594.34,11.25 -1.60,593.54,11.25 -1.20,592.74,11.25 -0.00,591.94,11.25"/>
    </edge>
    <edge id=":DC_0" function="internal">
        <lane id=":DC_0_0" index="0" speed="3.65" length="4.67" shape="349.73,941.67,11.25 348.93,942.87,11.25 348.13,943.27,11.25 347.33,942.87,11.25 346.53,941.67,11.25"/>
    </edge>
    <edge id=":TL_0" function="internal">
        <lane id=":TL_0_0" index="0" speed="8.83" length="17.50" shape="688.25,610.34 687.90,603.69 686.85,598.94 685.10,596.09 682.65,595.14"/>
    </edge>
    <edge id=":TL_1" function="internal">
        <lane id=":TL_1_0" index="0" speed="30.00" length="27.36" shape="688.25,610.34 688.75,601.72 689.85,595.36 690.95,589.68 691.45,583.14"/>
        <lane id=":TL_1_1" index="1" speed="30.00" length="27.36" shape="691.45,610.34 691.95,601.72 693.05,595.36 694.15,589.68 694.65,583.14"/>
        <lane id=":TL_1_2" index="2" speed="30.00" length="27.36" shape="694.65,610.34 694.65,583.14"/>
    </edge>
    <edge id=":TL_4" function="internal">
        <lane id=":TL_4_0" index="0" speed="10.88" length="6.03" shape="694.65,610.34 695.36,604.36"/>
    </edge>
    <edge id=":TL_18" function="internal">
        <lane id=":TL_18_0" index="0" speed="10.88" length="21.12" shape="695.36,604.36 695.60,602.29 698.45,596.54 703.20,593.09 709.85,591.94"/>
    </edge>
    <edge id=":TL_5" function="internal">
        <lane id=":TL_5_0" index="0" speed="6.51" length="9.03" shape="709.85,604.74 707.40,605.09 705.65,606.14 704.60,607.89 704.25,610.34"/>
    </edge>
    <edge id=":TL_6" function="internal">
        <lane id=":TL_6_0" index="0" speed="27.50" length="27.96" shape="709.85,604.74 700.22,603.24 692.72,599.94 686.99,596.64 682.65,595.14"/>
        <lane id=":TL_6_1" index="1" speed="27.50" length="27.96" shape="709.85,601.54 700.41,600.54 692.89,598.34 687.05,596.14 682.65,595.14"/>
        <lane id=":TL_6_2" index="2" speed="27.50" length="27.96" shape="709.85,598.34 700.53,597.84 692.99,596.74 687.09,595.64 682.65,595.14"/>
        <lane id=":TL_6_3" index="3" speed="27.50" length="27.96" shape="709.85,595.14 682.65,595.14"/>
    </edge>
    <edge id=":TL_10" function="internal">
        <lane id=":TL_10_0" index="0" speed="9.84" length="11.58" shape="709.85,595.14 703.20,594.39 698.79,592.30"/>
    </edge>
    <edge id=":TL_19" function="internal">
        <lane id=":TL_19_0" index="0" speed="9.84" length="10.42" shape="698.79,592.30 698.45,592.14 695.60,588.39 694.65,583.14"/>
    </edge>
    <edge id=":TL_11" function="internal">
        <lane id=":TL_11_0" index="0" speed="6.51" length="9.03" shape="704.25,583.14 704.60,585.59 705.65,587.34 707.40,588.39 709.85,588.74"/>
    </edge>
    <edge id=":TL_12" function="internal">
        <lane id=":TL_12_0" index="0" speed="30.00" length="27.20" shape="704.25,583.14 704.25,610.34"/>
        <lane id=":TL_12_1" index="1" speed="30.00" length="27.20" shape="701.05,583.14 701.05,610.34"/>
        <lane id=":TL_12_2" index="2" speed="30.00" length="27.20" shape="697.85,583.14 697.85,610.34"/>
    </edge>
    <edge id=":TL_15" function="internal">
        <lane id=":TL_15_0" index="0" speed="9.84" length="4.01" shape="697.85,583.14 697.14,587.09"/>
    </edge>
    <edge id=":TL_20" function="internal">
        <lane id=":TL_20_0" index="0" speed="9.84" length="17.98" shape="697.14,587.09 696.90,588.39 694.05,592.14 689.30,594.39 682.65,595.14"/>
    </edge>
    <edge id=":TL_16" function="internal">
        <lane id=":TL_16_0" index="0" speed="8.00" length="14.19" shape="682.65,591.94 686.50,591.39 689.25,589.74 690.90,586.99 691.45,583.14"/>
    </edge>
    <edge id=":TL_17" function="internal">
        <lane id=":TL_17_0" index="0" speed="27.50" length="27.41" shape="682.65,591.94 687.61,591.44 694.38,590.34 702.09,589.24 709.85,588.74"/>
    </edge>

    <edge id="A2AA" from="A" to="AA" priority="-1">
        <lane id="A2AA_0" index="0" speed="30.00" length="290.81" shape="682.65,905.95,-6.96 391.84,905.95,-6.96"/>
        <lane id="A2AA_1" index="1" speed="30.00" length="290.81" shape="682.65,902.75,-6.96 391.84,902.75,-6.96"/>
        <lane id="A2AA_2" index="2" speed="30.00" length="290.81" shape="682.65,899.55,-6.96 391.84,899.55,-6.96"/>
    </edge>
    <edge id="A2AB" from="A" to="AB" priority="-1">
        <lane id="A2AB_0" index="0" speed="30.00" length="290.81" shape="704.25,911.55,-6.96 704.25,1202.36,-6.96"/>
        <lane id="A2AB_1" index="1" speed="30.00" length="290.81" shape="701.05,911.55,-6.96 701.05,1202.36,-6.96"/>
        <lane id="A2AB_2" index="2" speed="30.00" length="290.81" shape="697.85,911.55,-6.96 697.85,1202.36,-6.96"/>
    </edge>
    <edge id="A2AC" from="A" to="AC" priority="-1">
        <lane id="A2AC_0" index="0" speed="30.00" length="290.81" shape="709.85,889.95,-6.96 1000.67,889.95,-6.96"/>
        <lane id="A2AC_1" index="1" speed="30.00" length="290.81" shape="709.85,893.15,-6.96 1000.67,893.15,-6.96"/>
        <lane id="A2AC_2" index="2" speed="30.00" length="290.81" shape="709.85,896.35,-6.96 1000.67,896.35,-6.96"/>
    </edge>
    <edge id="A2TL" from="A" to="TL" priority="-1">
        <lane id="A2TL_0" index="0" speed="30.00" length="274.10" shape="688.25,884.35,-6.96 688.25,610.34"/>
        <lane id="A2TL_1" index="1" speed="30.00" length="274.10" shape="691.45,884.35,-6.96 691.45,610.34"/>
        <lane id="A2TL_2" index="2" speed="30.00" length="274.10" shape="694.65,884.35,-6.96 694.65,610.34"/>
    </edge>
    <edge id="AA2A" from="AA" to="A" priority="-1">
        <lane id="AA2A_0" index="0" speed="30.00" length="290.81" shape="391.84,889.95,-6.96 682.65,889.95,-6.96"/>
        <lane id="AA2A_1" index="1" speed="30.00" length="290.81" shape="391.84,893.15,-6.96 682.65,893.15,-6.96"/>
        <lane id="AA2A_2" index="2" speed="30.00" length="290.81" shape="391.84,896.35,-6.96 682.65,896.35,-6.96"/>
    </edge>
    <edge id="AB2A" from="AB" to="A" priority="-1">
        <lane id="AB2A_0" index="0" speed="30.00" length="290.81" shape="688.25,1202.36,-6.96 688.25,911.55,-6.96"/>
        <lane id="AB2A_1" index="1" speed="30.00" length="290.81" shape="691.45,1202.36,-6.96 691.45,911.55,-6.96"/>
        <lane id="AB2A_2" index="2" speed="30.00" length="290.81" shape="694.65,1202.36,-6.96 694.65,911.55,-6.96"/>
    </edge>
    <edge id="AC2A" from="AC" to="A" priority="-1">
        <lane id="AC2A_0" index="0" speed="30.00" length="290.81" shape="1000.67,905.95,-6.96 709.85,905.95,-6.96"/>
        <lane id="AC2A_1" index="1" speed="30.00" length="290.81" shape="1000.67,902.75,-6.96 709.85,902.75,-6.96"/>
        <lane id="AC2A_2" index="2" speed="30.00" length="290.81" shape="1000.67,899.55,-6.96 709.85,899.55,-6.96"/>
    </edge>
    <edge id="B2BA" from="B" to="BA" priority="-1">
        <lane id="B2BA_0" index="0" speed="30.00" length="291.94" shape="1016.20,610.34,-8.66 1016.20,902.28,-8.66"/>
        <lane id="B2BA_1" index="1" speed="30.00" length="291.94" shape="1013.00,610.34,-8.66 1013.00,902.28,-8.66"/>
        <lane id="B2BA_2" index="2" speed="30.00" length="291.94" shape="1009.80,610.34,-8.66 1009.80,902.28,-8.66"/>
        <lane id="B2BA_3" index="3" speed="30.00" length="291.94" shape="1006.60,610.34,-8.66 1006.60,902.28,-8.66"/>
    </edge>
    <edge id="B2BB" from="B" to="BB" priority="-1">
        <lane id="B2BB_0" index="0" speed="30.00" length="291.94" shape="1021.80,582.34,-8.66 1313.74,582.34,-8.66"/>
        <lane id="B2BB_1" index="1" speed="30.00" length="291.94" shape="1021.80,585.54,-8.66 1313.74,585.54,-8.66"/>
        <lane id="B2BB_2" index="2" speed="30.00" length="291.94" shape="1021.80,588.74,-8.66 1313.74,588.74,-8.66"/>
        <lane id="B2BB_3" index="3" speed="30.00" length="291.94" shape="1021.80,591.94,-8.66 1313.74,591.94,-8.66"/>
    </edge>
    <edge id="B2BC" from="B" to="BC" priority="-1">
        <lane id="B2BC_0" index="0" speed="30.00" length="291.94" shape="993.80,576.74,-8.66 993.80,284.80,-8.66"/>
        <lane id="B2BC_1" index="1" speed="30.00" length="291.94" shape="997.00,576.74,-8.66 997.00,284.80,-8.66"/>
        <lane id="B2BC_2" index="2" speed="30.00" length="291.94" shape="1000.20,576.74,-8.66 1000.20,284.80,-8.66"/>
        <lane id="B2BC_3" index="3" speed="30.00" length="291.94" shape="1003.40,576.74,-8.66 1003.40,284.80,-8.66"/>
    </edge>
    <edge id="B2TL" from="B" to="TL" priority="-1">
        <lane id="B2TL_0" index="0" speed="30.00" length="278.48" shape="988.20,604.74,-8.66 709.85,604.74"/>
        <lane id="B2TL_1" index="1" speed="30.00" length="278.48" shape="988.20,601.54,-8.66 709.85,601.54"/>
        <lane id="B2TL_2" index="2" speed="30.00" length="278.48" shape="988.20,598.34,-8.66 709.85,598.34"/>
        <lane id="B2TL_3" index="3" speed="30.00" length="278.48" shape="988.20,595.14,-8.66 709.85,595.14"/>
    </edge>
    <edge id="BA2B" from="BA" to="B" priority="-1">
        <lane id="BA2B_0" index="0" speed="30.00" length="291.94" shape="1000.20,902.28,-8.66 1000.20,610.34,-8.66"/>
        <lane id="BA2B_1" index="1" speed="30.00" length="291.94" shape="1003.40,902.28,-8.66 1003.40,610.34,-8.66"/>
    </edge>
    <edge id="BB2B" from="BB" to="B" priority="-1">
        <lane id="BB2B_0" index="0" speed="30.00" length="291.94" shape="1313.74,598.34,-8.66 1021.80,598.34,-8.66"/>
        <lane id="BB2B_1" index="1" speed="30.00" length="291.94" shape="1313.74,595.14,-8.66 1021.80,595.14,-8.66"/>
    </edge>
    <edge id="BC2B" from="BC" to="B" priority="-1">
        <lane id="BC2B_0" index="0" speed="30.00" length="291.94" shape="1009.80,284.80,-8.66 1009.80,576.74,-8.66"/>
        <lane id="BC2B_1" index="1" speed="30.00" length="291.94" shape="1006.60,284.80,-8.66 1006.60,576.74,-8.66"/>
    </edge>
    <edge id="C2CA" from="C" to="CA" priority="-1">
        <lane id="C2CA_0" index="0" speed="30.00" length="283.17" shape="709.85,288.77,30.97 993.02,288.77,30.97"/>
        <lane id="C2CA_1" index="1" speed="30.00" length="283.17" shape="709.85,291.97,30.97 993.02,291.97,30.97"/>
        <lane id="C2CA_2" index="2" speed="30.00" length="283.17" shape="709.85,295.17,30.97 993.02,295.17,30.97"/>
    </edge>
    <edge id="C2CB" from="C" to="CB" priority="-1">
        <lane id="C2CB_0" index="0" speed="30.00" length="283.17" shape="688.25,283.17,30.97 688.25,0.00,30.97"/>
        <lane id="C2CB_1" index="1" speed="30.00" length="283.17" shape="691.45,283.17,30.97 691.45,0.00,30.97"/>
        <lane id="C2CB_2" index="2" speed="30.00" length="283.17" shape="694.65,283.17,30.97 694.65,0.00,30.97"/>
    </edge>
    <edge id="C2CC" from="C" to="CC" priority="-1">
        <lane id="C2CC_0" index="0" speed="30.00" length="283.17" shape="682.65,304.77,30.97 399.48,304.77,30.97"/>
        <lane id="C2CC_1" index="1" speed="30.00" length="283.17" shape="682.65,301.57,30.97 399.48,301.57,30.97"/>
        <lane id="C2CC_2" index="2" speed="30.00" length="283.17" shape="682.65,298.37,30.97 399.48,298.37,30.97"/>
    </edge>
    <edge id="C2TL" from="C" to="TL" priority="-1">
        <lane id="C2TL_0" index="0" speed="30.00" length="274.52" shape="704.25,310.37,30.97 704.25,583.14"/>
        <lane id="C2TL_1" index="1" speed="30.00" length="274.52" shape="701.05,310.37,30.97 701.05,583.14"/>
        <lane id="C2TL_2" index="2" speed="30.00" length="274.52" shape="697.85,310.37,30.97 697.85,583.14"/>
    </edge>
    <edge id="CA2C" from="CA" to="C" priority="-1">
        <lane id="CA2C_0" index="0" speed="30.00" length="283.17" shape="993.02,301.57,30.97 709.85,301.57,30.97"/>
        <lane id="CA2C_1" index="1" speed="30.00" length="283.17" shape="993.02,298.37,30.97 709.85,298.37,30.97"/>
    </edge>
    <edge id="CB2C" from="CB" to="C" priority="-1">
        <lane id="CB2C_0" index="0" speed="30.00" length="283.17" shape="701.05,0.00,30.97 701.05,283.17,30.97"/>
        <lane id="CB2C_1" index="1" speed="30.00" length="283.17" shape="697.85,0.00,30.97 697.85,283.17,30.97"/>
    </edge>
    <edge id="CC2C" from="CC" to="C" priority="-1">
        <lane id="CC2C_0" index="0" speed="30.00" length="283.17" shape="399.48,291.97,30.97 682.65,291.97,30.97"/>
        <lane id="CC2C_1" index="1" speed="30.00" length="283.17" shape="399.48,295.17,30.97 682.65,295.17,30.97"/>
    </edge>
    <edge id="D2DA" from="D" to="DA" priority="-1">
        <lane id="D2DA_0" index="0" speed="25.00" length="340.93" shape="346.53,586.34,11.25 346.53,245.41,11.25"/>
    </edge>
    <edge id="D2DB" from="D" to="DB" priority="-1">