<?xml version="1.0" encoding="UTF-8"?>

<!-- generated on 2022-10-11 17:11:02 by Eclipse SUMO netconvert Version 1.14.1
<configuration xmlns:xsi="http://www.w3.org/2001/XMLSchema-instance" xsi:noNamespaceSchemaLocation="http://sumo.dlr.de/xsd/netconvertConfiguration.xsd">

    <input>
        <node-files value="../data/salt-lake-city/nodes.nod.xml"/>
        <edge-files value="../data/salt-lake-city/edges.edg.xml"/>
        <connection-files value="../data/salt-lake-city/connections.con.xml"/>
    </input>

    <output>
        <output-file value="../data/salt-lake-city/sumo/net/233.net.xml"/>
    </output>

    <tls_building>
        <tls.minor-left.max-speed value="1"/>
    </tls_building>

    <report>
        <verbose value="true"/>
    </report>

</configuration>
-->

<net version="1.9" junctionCornerDetail="5" limitTurnSpeed="5.50" xmlns:xsi="http://www.w3.org/2001/XMLSchema-instance" xsi:noNamespaceSchemaLocation="http://sumo.dlr.de/xsd/net_file.xsd">

    <location netOffset="638.51,592.67" convBoundary="0.00,0.00,1047.28,1213.39" origBoundary="-638.51,-592.67,408.77,620.72" projParameter="!"/>

    <edge id=":A_0" function="internal">
        <lane id=":A_0_0" index="0" speed="6.51" length="9.03" shape="633.71,913.43,-4.07 633.36,910.98,-4.07 632.31,909.23,-4.07 630.56,908.18,-4.07 628.11,907.83,-4.07"/>
    </edge>
    <edge id=":A_1" function="internal">
        <lane id=":A_1_0" index="0" speed="30.00" length="20.80" shape="633.71,913.43,-4.07 633.71,892.63,-3.93"/>
        <lane id=":A_1_1" index="1" speed="30.00" length="20.80" shape="636.91,913.43,-4.07 636.91,892.63,-3.93"/>
    </edge>
    <edge id=":A_3" function="internal">
        <lane id=":A_3_0" index="0" speed="9.26" length="5.01" shape="636.91,913.43,-4.07 637.62,908.47,-4.07"/>
    </edge>
    <edge id=":A_16" function="internal">
        <lane id=":A_16_0" index="0" speed="9.26" length="14.34" shape="637.62,908.47,-4.07 637.66,908.18,-4.07 639.91,904.43,-4.07 643.66,902.18,-4.07 648.91,901.43,-4.07"/>
    </edge>
    <edge id=":A_4" function="internal">
        <lane id=":A_4_0" index="0" speed="6.51" length="9.03" shape="648.91,907.83,-4.07 646.46,908.18,-4.07 644.71,909.23,-4.07 643.66,910.98,-4.07 643.31,913.43,-4.07"/>
    </edge>
    <edge id=":A_5" function="internal">
        <lane id=":A_5_0" index="0" speed="30.00" length="20.80" shape="648.91,907.83,-4.07 628.11,907.83,-4.07"/>
        <lane id=":A_5_1" index="1" speed="30.00" length="20.80" shape="648.91,904.63,-4.07 628.11,904.63,-4.07"/>
    </edge>
    <edge id=":A_7" function="internal">
        <lane id=":A_7_0" index="0" speed="9.26" length="5.01" shape="648.91,904.63,-4.07 643.95,903.92,-4.03"/>
    </edge>
    <edge id=":A_17" function="internal">
        <lane id=":A_17_0" index="0" speed="9.26" length="14.34" shape="643.95,903.92,-4.03 643.66,903.88,-4.03 639.91,901.63,-4.00 637.66,897.88,-3.97 636.91,892.63,-3.93"/>
    </edge>
    <edge id=":A_8" function="internal">
        <lane id=":A_8_0" index="0" speed="6.51" length="9.03" shape="643.31,892.63,-3.93 643.66,895.08,-3.97 644.71,896.83,-4.00 646.46,897.88,-4.03 648.91,898.23,-4.07"/>
    </edge>
    <edge id=":A_9" function="internal">
        <lane id=":A_9_0" index="0" speed="30.00" length="20.80" shape="643.31,892.63,-3.93 643.31,913.43,-4.07"/>
        <lane id=":A_9_1" index="1" speed="30.00" length="20.80" shape="640.11,892.63,-3.93 640.11,913.43,-4.07"/>
    </edge>
    <edge id=":A_11" function="internal">
        <lane id=":A_11_0" index="0" speed="9.26" length="5.01" shape="640.11,892.63,-3.93 639.40,897.59,-3.97"/>
    </edge>
    <edge id=":A_18" function="internal">
        <lane id=":A_18_0" index="0" speed="9.26" length="14.34" shape="639.40,897.59,-3.97 639.36,897.88,-3.97 637.11,901.63,-4.00 633.36,903.88,-4.03 628.11,904.63,-4.07"/>
    </edge>
    <edge id=":A_12" function="internal">
        <lane id=":A_12_0" index="0" speed="6.51" length="9.03" shape="628.11,898.23,-4.07 630.56,897.88,-4.03 632.31,896.83,-4.00 633.36,895.08,-3.97 633.71,892.63,-3.93"/>
    </edge>
    <edge id=":A_13" function="internal">
        <lane id=":A_13_0" index="0" speed="30.00" length="20.80" shape="628.11,898.23,-4.07 648.91,898.23,-4.07"/>
        <lane id=":A_13_1" index="1" speed="30.00" length="20.80" shape="628.11,901.43,-4.07 648.91,901.43,-4.07"/>
    </edge>
    <edge id=":A_15" function="internal">
        <lane id=":A_15_0" index="0" speed="9.26" length="5.01" shape="628.11,901.43,-4.07 633.08,902.14,-4.07"/>
    </edge>
    <edge id=":A_19" function="internal">
        <lane id=":A_19_0" index="0" speed="9.26" length="14.34" shape="633.08,902.14,-4.07 633.36,902.18,-4.07 637.11,904.43,-4.07 639.36,908.18,-4.07 640.11,913.43,-4.07"/>
    </edge>
    <edge id=":AA_0" function="internal">
        <lane id=":AA_0_0" index="0" speed="3.65" length="4.67" shape="328.15,904.63,-4.07 326.95,903.83,-4.07 326.55,903.03,-4.07 326.95,902.23,-4.07 328.15,901.43,-4.07"/>
    </edge>
    <edge id=":AB_0" function="internal">
        <lane id=":AB_0_0" index="0" speed="3.65" length="4.67" shape="640.11,1213.39,-4.07 639.31,1214.59,-4.07 638.51,1214.99,-4.07 637.71,1214.59,-4.07 636.91,1213.39,-4.07"/>
    </edge>
    <edge id=":AC_0" function="internal">
        <lane id=":AC_0_0" index="0" speed="3.65" length="4.67" shape="948.88,901.43,-4.07 950.08,902.23,-4.07 950.48,903.03,-4.07 950.08,903.83,-4.07 948.88,904.63,-4.07"/>
    </edge>
    <edge id=":B_0" function="internal">
        <lane id=":B_0_0" index="0" speed="6.51" length="9.03" shape="841.30,599.87,-0.87 840.95,597.42,-0.86 839.90,595.67,-0.86 838.15,594.62,-0.85 835.70,594.27,-0.84"/>
    </edge>
    <edge id=":B_1" function="internal">
        <lane id=":B_1_0" index="0" speed="25.00" length="14.40" shape="841.30,599.87,-0.87 841.30,585.47,-0.87"/>
    </edge>
    <edge id=":B_2" function="internal">
        <lane id=":B_2_0" index="0" speed="6.51" length="9.03" shape="850.10,594.27,-0.87 847.65,594.62,-0.87 845.90,595.67,-0.87 844.85,597.42,-0.87 844.50,599.87,-0.87"/>
    </edge>
    <edge id=":B_3" function="internal">
        <lane id=":B_3_0" index="0" speed="25.00" length="14.40" shape="850.10,594.27,-0.87 835.70,594.27,-0.84"/>
    </edge>
    <edge id=":B_4" function="internal">
        <lane id=":B_4_0" index="0" speed="6.51" length="9.03" shape="844.50,585.47,-0.87 844.85,587.92,-0.87 845.90,589.67,-0.87 847.65,590.72,-0.87 850.10,591.07,-0.87"/>
    </edge>
    <edge id=":B_5" function="internal">
        <lane id=":B_5_0" index="0" speed="25.00" length="14.40" shape="844.50,585.47,-0.87 844.50,599.87,-0.87"/>
    </edge>
    <edge id=":B_6" function="internal">
        <lane id=":B_6_0" index="0" speed="6.51" length="9.03" shape="835.70,591.07,-0.84 838.15,590.72,-0.85 839.90,589.67,-0.86 840.95,587.92,-0.86 841.30,585.47,-0.87"/>
    </edge>
    <edge id=":B_7" function="internal">
        <lane id=":B_7_0" index="0" speed="25.00" length="14.40" shape="835.70,591.07,-0.84 850.10,591.07,-0.87"/>
    </edge>
    <edge id=":BA_0" function="internal">
        <lane id=":BA_0_0" index="0" speed="3.65" length="4.67" shape="844.50,797.05,-0.87 843.70,798.25,-0.87 842.90,798.65,-0.87 842.10,798.25,-0.87 841.30,797.05,-0.87"/>
    </edge>
    <edge id=":BB_0" function="internal">
        <lane id=":BB_0_0" index="0" speed="3.65" length="4.67" shape="1047.28,591.07,-0.87 1048.48,591.87,-0.87 1048.88,592.67,-0.87 1048.48,593.47,-0.87 1047.28,594.27,-0.87"/>
    </edge>
    <edge id=":BC_0" function="internal">
        <lane id=":BC_0_0" index="0" speed="3.65" length="4.67" shape="841.30,388.29,-0.87 842.10,387.09,-0.87 842.90,386.69,-0.87 843.70,387.09,-0.87 844.50,388.29,-0.87"/>
    </edge>
    <edge id=":C_0" function="internal">
        <lane id=":C_0_0" index="0" speed="6.51" length="9.03" shape="633.71,306.73,-3.75 633.36,304.28,-3.78 632.31,302.53,-3.82 630.56,301.48,-3.85 628.11,301.13,-3.88"/>
    </edge>
    <edge id=":C_1" function="internal">
        <lane id=":C_1_0" index="0" speed="30.00" length="20.80" shape="633.71,306.73,-3.75 633.71,285.93,-3.88"/>
        <lane id=":C_1_1" index="1" speed="30.00" length="20.80" shape="636.91,306.73,-3.75 636.91,285.93,-3.88"/>
    </edge>
    <edge id=":C_3" function="internal">
        <lane id=":C_3_0" index="0" speed="9.26" length="5.01" shape="636.91,306.73,-3.75 637.62,301.77,-3.78"/>
    </edge>
    <edge id=":C_16" function="internal">
        <lane id=":C_16_0" index="0" speed="9.26" length="14.34" shape="637.62,301.77,-3.78 637.66,301.48,-3.78 639.91,297.73,-3.82 643.66,295.48,-3.85 648.91,294.73,-3.88"/>
    </edge>
    <edge id=":C_4" function="internal">
        <lane id=":C_4_0" index="0" speed="6.51" length="9.03" shape="648.91,301.13,-3.88 646.46,301.48,-3.85 644.71,302.53,-3.82 643.66,304.28,-3.78 643.31,306.73,-3.75"/>
    </edge>
    <edge id=":C_5" function="internal">
        <lane id=":C_5_0" index="0" speed="30.00" length="20.80" shape="648.91,301.13,-3.88 628.11,301.13,-3.88"/>
        <lane id=":C_5_1" index="1" speed="30.00" length="20.80" shape="648.91,297.93,-3.88 628.11,297.93,-3.88"/>
    </edge>
    <edge id=":C_7" function="internal">
        <lane id=":C_7_0" index="0" speed="9.26" length="5.01" shape="648.91,297.93,-3.88 643.95,297.23,-3.88"/>
    </edge>
    <edge id=":C_17" function="internal">
        <lane id=":C_17_0" index="0" speed="9.26" length="14.34" shape="643.95,297.23,-3.88 643.66,297.18,-3.88 639.91,294.93,-3.88 637.66,291.18,-3.88 636.91,285.93,-3.88"/>
    </edge>
    <edge id=":C_8" function="internal">
        <lane id=":C_8_0" index="0" speed="6.51" length="9.03" shape="643.31,285.93,-3.88 643.66,288.38,-3.88 644.71,290.13,-3.88 646.46,291.18,-3.88 648.91,291.53,-3.88"/>
    </edge>
    <edge id=":C_9" function="internal">
        <lane id=":C_9_0" index="0" speed="30.00" length="20.80" shape="643.31,285.93,-3.88 643.31,306.73,-3.75"/>
        <lane id=":C_9_1" index="1" speed="30.00" length="20.80" shape="640.11,285.93,-3.88 640.11,306.73,-3.75"/>
    </edge>
    <edge id=":C_11" function="internal">
        <lane id=":C_11_0" index="0" speed="9.26" length="5.01" shape="640.11,285.93,-3.88 639.40,290.90,-3.88"/>
    </edge>
    <edge id=":C_18" function="internal">
        <lane id=":C_18_0" index="0" speed="9.26" length="14.34" shape="639.40,290.90,-3.88 639.36,291.18,-3.88 637.11,294.93,-3.88 633.36,297.18,-3.88 628.11,297.93,-3.88"/>
    </edge>
    <edge id=":C_12" function="internal">
        <lane id=":C_12_0" index="0" speed="6.51" length="9.03" shape="628.11,291.53,-3.88 630.56,291.18,-3.88 632.31,290.13,-3.88 633.36,288.38,-3.88 633.71,285.93,-3.88"/>
    </edge>
    <edge id=":C_13" function="internal">
        <lane id=":C_13_0" index="0" speed="30.00" length="20.80" shape="628.11,291.53,-3.88 648.91,291.53,-3.88"/>
        <lane id=":C_13_1" index="1" speed="30.00" length="20.80" shape="628.11,294.73,-3.88 648.91,294.73,-3.88"/>
    </edge>
    <edge id=":C_15" function="internal">
        <lane id=":C_15_0" index="0" speed="9.26" length="5.01" shape="628.11,294.73,-3.88 633.08,295.44,-3.85"/>
    </edge>
    <edge id=":C_19" function="internal">
        <lane id=":C_19_0" index="0" speed="9.26" length="14.34" shape="633.08,295.44,-3.85 633.36,295.48,-3.85 637.11,297.73,-3.82 639.36,301.48,-3.78 640.11,306.73,-3.75"/>
    </edge>
    <edge id=":CA_0" function="internal">
        <lane id=":CA_0_0" index="0" speed="3.65" length="4.67" shape="934.85,294.73,-3.88 936.05,295.53,-3.88 936.45,296.33,-3.88 936.05,297.13,-3.88 934.85,297.93,-3.88"/>
    </edge>
    <edge id=":CB_0" function="internal">
        <lane id=":CB_0_0" index="0" speed="3.65" length="4.67" shape="636.91,-0.00,-3.88 637.71,-1.20,-3.88 638.51,-1.60,-3.88 639.31,-1.20,-3.88 640.11,-0.00,-3.88"/>
    </edge>
    <edge id=":CC_0" function="internal">
        <lane id=":CC_0_0" index="0" speed="3.65" length="4.67" shape="342.18,297.93,-3.88 340.98,297.13,-3.88 340.58,296.33,-3.88 340.98,295.53,-3.88 342.18,294.73,-3.88"/>
    </edge>
    <edge id=":D_0" function="internal">
        <lane id=":D_0_0" index="0" speed="6.51" length="9.03" shape="317.66,599.87,-1.36 317.31,597.42,-1.36 316.26,595.67,-1.36 314.51,594.62,-1.36 312.06,594.27,-1.36"/>
    </edge>
    <edge id=":D_1" function="internal">
        <lane id=":D_1_0" index="0" speed="25.00" length="14.40" shape="317.66,599.87,-1.36 317.66,585.47,-1.36"/>
    </edge>
    <edge id=":D_2" function="internal">
        <lane id=":D_2_0" index="0" speed="6.51" length="9.03" shape="326.46,594.27,-1.33 324.01,594.62,-1.34 322.26,595.67,-1.35 321.21,597.42,-1.35 320.86,599.87,-1.36"/>
    </edge>
    <edge id=":D_3" function="internal">
        <lane id=":D_3_0" index="0" speed="25.00" length="14.40" shape="326.46,594.27,-1.33 312.06,594.27,-1.36"/>
    </edge>
    <edge id=":D_4" function="internal">
        <lane id=":D_4_0" index="0" speed="6.51" length="9.03" shape="320.86,585.47,-1.36 321.21,587.92,-1.35 322.26,589.67,-1.35 324.01,590.72,-1.34 326.46,591.07,-1.33"/>
    </edge>
    <edge id=":D_5" function="internal">
        <lane id=":D_5_0" index="0" speed="25.00" length="14.40" shape="320.86,585.47,-1.36 320.86,599.87,-1.36"/>
    </edge>
    <edge id=":D_6" function="internal">
        <lane id=":D_6_0" index="0" speed="6.51" length="9.03" shape="312.06,591.07,-1.36 314.51,590.72,-1.36 316.26,589.67,-1.36 317.31,587.92,-1.36 317.66,585.47,-1.36"/>
    </edge>
    <edge id=":D_7" function="internal">
        <lane id=":D_7_0" index="0" speed="25.00" length="14.40" shape="312.06,591.07,-1.36 326.46,591.07,-1.33"/>
    </edge>
    <edge id=":DA_0" function="internal">
        <lane id=":DA_0_0" index="0" speed="3.65" length="4.67" shape="317.66,273.41,-1.36 318.46,272.21,-1.36 319.26,271.81,-1.36 320.06,272.21,-1.36 320.86,273.41,-1.36"/>
    </edge>
    <edge id=":DB_0" function="internal">
        <lane id=":DB_0_0" index="0" speed="3.65" length="4.67" shape="-0.00,594.27,-1.36 -1.20,593.47,-1.36 -1.60,592.67,-1.36 -1.20,591.87,-1.36 0.00,591.07,-1.36"/>
    </edge>
    <edge id=":DC_0" function="internal">
        <lane id=":DC_0_0" index="0" speed="3.65" length="4.67" shape="320.86,911.93,-1.36 320.06,913.13,-1.36 319.26,913.53,-1.36 318.46,913.13,-1.36 317.66,911.93,-1.36"/>
    </edge>
    <edge id=":TL_0" function="internal">
        <lane id=":TL_0_0" index="0" speed="6.51" length="9.03" shape="633.71,599.87,-0.09 633.36,597.42,-0.08 632.31,595.67,-0.07 630.56,594.62,-0.06 628.11,594.27,-0.04"/>
    </edge>
    <edge id=":TL_1" function="internal">
        <lane id=":TL_1_0" index="0" speed="30.00" length="14.40" shape="633.71,599.87,-0.09 633.71,585.47,-0.09"/>
        <lane id=":TL_1_1" index="1" speed="30.00" length="14.40" shape="636.91,599.87,-0.09 636.91,585.47,-0.09"/>
    </edge>
    <edge id=":TL_3" function="internal">
        <lane id=":TL_3_0" index="0" speed="8.67" length="3.71" shape="636.91,599.87,-0.09 637.62,596.23,-0.08"/>
    </edge>
    <edge id=":TL_12" function="internal">
        <lane id=":TL_12_0" index="0" speed="8.67" length="13.14" shape="637.62,596.23,-0.08 637.66,596.02,-0.08 639.91,593.27,-0.07 643.66,591.62,-0.06 648.91,591.07,-0.04"/>
    </edge>
    <edge id=":TL_4" function="internal">
        <lane id=":TL_4_0" index="0" speed="6.51" length="9.03" shape="648.91,594.27,-0.04 646.46,594.62,-0.06 644.71,595.67,-0.07 643.66,597.42,-0.08 643.31,599.87,-0.09"/>
    </edge>
    <edge id=":TL_5" function="internal">
        <lane id=":TL_5_0" index="0" speed="25.00" length="20.80" shape="648.91,594.27,-0.04 628.11,594.27,-0.04"/>
    </edge>
    <edge id=":TL_6" function="internal">
        <lane id=":TL_6_0" index="0" speed="6.51" length="9.03" shape="643.31,585.47,-0.09 643.66,587.92,-0.08 644.71,589.67,-0.07 646.46,590.72,-0.06 648.91,591.07,-0.04"/>
    </edge>
    <edge id=":TL_7" function="internal">
        <lane id=":TL_7_0" index="0" speed="30.00" length="14.40" shape="643.31,585.47,-0.09 643.31,599.87,-0.09"/>
        <lane id=":TL_7_1" index="1" speed="30.00" length="14.40" shape="640.11,585.47,-0.09 640.11,599.87,-0.09"/>
    </edge>
    <edge id=":TL_9" function="internal">
        <lane id=":TL_9_0" index="0" speed="8.67" length="3.71" shape="640.11,585.47,-0.09 639.40,589.11,-0.08"/>
    </edge>
    <edge id=":TL_13" function="internal">
        <lane id=":TL_13_0" index="0" speed="8.67" length="13.14" shape="639.40,589.11,-0.08 639.36,589.32,-0.08 637.11,592.07,-0.07 633.36,593.72,-0.06 628.11,594.27,-0.04"/>
    </edge>
    <edge id=":TL_10" function="internal">
        <lane id=":TL_10_0" index="0" speed="6.51" length="9.03" shape="628.11,591.07,-0.04 630.56,590.72,-0.06 632.31,589.67,-0.07 633.36,587.92,-0.08 633.71,585.47,-0.09"/>
    </edge>
    <edge id=":TL_11" function="internal">
        <lane id=":TL_11_0" index="0" speed="25.00" length="20.80" shape="628.11,591.07,-0.04 648.91,591.07,-0.04"/>
    </edge>

    <edge id="A2AA" from="A" to="AA" priority="-1">
        <lane id="A2AA_0" index="0" speed="30.00" length="299.96" shape="628.11,907.83,-4.07 328.15,907.83,-4.07"/>
        <lane id="A2AA_1" index="1" speed="30.00" length="299.96" shape="628.11,904.63,-4.07 328.15,904.63,-4.07"/>
    </edge>
    <edge id="A2AB" from="A" to="AB" priority="-1">
        <lane id="A2AB_0" index="0" speed="30.00" length="299.96" shape="643.31,913.43,-4.07 643.31,1213.39,-4.07"/>
        <lane id="A2AB_1" index="1" speed="30.00" length="299.96" shape="640.11,913.43,-4.07 640.11,1213.39,-4.07"/>
    </edge>
    <edge id="A2AC" from="A" to="AC" priority="-1">
        <lane id="A2AC_0" index="0" speed="30.00" length="299.96" shape="648.91,898.23,-4.07 948.88,898.23,-4.07"/>
        <lane id="A2AC_1" index="1" speed="30.00" length="299.96" shape="648.91,901.43,-4.07 948.88,901.43,-4.07"/>
    </edge>
    <edge id="A2TL" from="A" to="TL" priority="-1">
        <lane id="A2TL_0" index="0" speed="30.00" length="292.79" shape="633.71,892.63,-3.93 633.71,599.87,-0.09"/>
        <lane id="A2TL_1" index="1" speed="30.00" length="292.79" shape="636.91,892.63,-3.93 636.91,599.87,-0.09"/>
    </edge>
    <edge id="AA2A" from="AA" to="A" priority="-1">
        <lane id="AA2A_0" index="0" speed="30.00" length="299.96" shape="328.15,898.23,-4.07 628.11,898.23,-4.07"/>
        <lane id="AA2A_1" index="1" speed="30.00" length="299.96" shape="328.15,901.43,-4.07 628.11,901.43,-4.07"/>
    </edge>
    <edge id="AB2A" from="AB" to="A" priority="-1">
        <lane id="AB2A_0" index="0" speed="30.00" length="299.96" shape="633.71,1213.39,-4.07 633.71,913.43,-4.07"/>
        <lane id="AB2A_1" index="1" speed="30.00" length="299.96" shape="636.91,1213.39,-4.07 636.91,913.43,-4.07"/>
    </edge>
    <edge id="AC2A" from="AC" to="A" priority="-1">
        <lane id="AC2A_0" index="0" speed="30.00" length="299.96" shape="948.88,907.83,-4.07 648.91,907.83,-4.07"/>
        <lane id="AC2A_1" index="1" speed="30.00" length="299.96" shape="948.88,904.63,-4.07 648.91,904.63,-4.07"/>
    </edge>
    <edge id="B2BA" from="B" to="BA" priority="-1">
        <lane id="B2BA_0" index="0" speed="25.00" length="197.18" shape="844.50,599.87,-0.87 844.50,797.05,-0.87"/>
    </edge>
    <edge id="B2BB" from="B" to="BB" priority="-1">
        <lane id="B2BB_0" index="0" speed="25.00" length="197.18" shape="850.10,591.07,-0.87 1047.28,591.07,-0.87"/>
    </edge>
    <edge id="B2BC" from="B" to="BC" priority="-1">
        <lane id="B2BC_0" index="0" speed="25.00" length="197.18" shape="841.30,585.47,-0.87 841.30,388.29,-0.87"/>
    </edge>
    <edge id="B2TL" from="B" to="TL" priority="-1">
        <lane id="B2TL_0" index="0" speed="25.00" length="186.79" shape="835.70,594.27,-0.84 648.91,594.27,-0.04"/>
    </edge>
    <edge id="BA2B" from="BA" to="B" priority="-1">
        <lane id="BA2B_0" index="0" speed="25.00" length="197.18" shape="841.30,797.05,-0.87 841.30,599.87,-0.87"/>
    </edge>
    <edge id="BB2B" from="BB" to="B" priority="-1">
        <lane id="BB2B_0" index="0" speed="25.00" length="197.18" shape="1047.28,594.27,-0.87 850.10,594.27,-0.87"/>
    </edge>
    <edge id="BC2B" from="BC" to="B" priority="-1">
        <lane id="BC2B_0" index="0" speed="25.00" length="197.18" shape="844.50,388.29,-0.87 844.50,585.47,-0.87"/>
    </edge>
    <edge id="C2CA" from="C" to="CA" priority="-1">
        <lane id="C2CA_0" index="0" speed="30.00" length="285.93" shape="648.91,291.53,-3.88 934.85,291.53,-3.88"/>
        <lane id="C2CA_1" index="1" speed="30.00" length="285.93" shape="648.91,294.73,-3.88 934.85,294.73,-3.88"/>
    </edge>
    <edge id="C2CB" from="C" to="CB" priority="-1">
        <lane id="C2CB_0" index="0" speed="30.00" length="285.93" shape="633.71,285.93,-3.88 633.71,-0.00,-3.88"/>
        <lane id="C2CB_1" index="1" speed="30.00" length="285.93" shape="636.91,285.93,-3.88 636.91,-0.00,-3.88"/>
    </edge>
    <edge id="C2CC" from="C" to="CC" priority="-1">
        <lane id="C2CC_0" index="0" speed="30.00" length="285.93" shape="628.11,301.13,-3.88 342.18,301.13,-3.88"/>
        <lane id="C2CC_1" index="1" speed="30.00" length="285.93" shape="628.11,297.93,-3.88 342.18,297.93,-3.88"/>
    </edge>
    <edge id="C2TL" from="C" to="TL" priority="-1">
        <lane id="C2TL_0" index="0" speed="30.00" length="278.76" shape="643.31,306.73,-3.75 643.31,585.47,-0.09"/>
        <lane id="C2TL_1" index="1" speed="30.00" length="278.76" shape="640.11,306.73,-3.75 640.11,585.47,-0.09"/>
    </edge>
    <edge id="CA2C" from="CA" to="C" priority="-1">
        <lane id="CA2C_0" index="0" speed="30.00" length="285.93" shape="934.85,301.13,-3.88 648.91,301.13,-3.88"/>
        <lane id="CA2C_1" index="1" speed="30.00" length="285.93" shape="934.85,297.93,-3.88 648.91,297.93,-3.88"/>
    </edge>
    <edge id="CB2C" from="CB" to="C" priority="-1">
        <lane id="CB2C_0" index="0" speed="30.00" length="285.93" shape="643.31,-0.00,-3.88 643.31,285.93,-3.88"/>
        <lane id="CB2C_1" index="1" speed="30.00" length="285.93" shape="640.11,-0.00,-3.88 640.11,285.93,-3.88"/>
    </edge>
    <edge id="CC2C" from="CC" to="C" priority="-1">
        <lane id="CC2C_0" index="0" speed="30.00" length="285.93" shape="342.18,291.53,-3.88 628.11,291.53,-3.88"/>
        <lane id="CC2C_1" index="1" speed="30.00" length="285.93" shape="342.18,294.73,-3.88 628.11,294.73,-3.88"/>
    </edge>
    <edge id="D2DA" from="D" to="DA" priority="-1">
        <lane id="D2DA_0" index="0" speed="25.00" length="312.06" shape="317.66,585.47,-1.36 317.66,273.41,-1.36"/>
    </edge>
    <edge id="D2DB" from="D" to="DB" priority="-1">
        <lane id="D2DB_0" index="0" speed="25.00" length="312.06" shape="312.06,594.27,-1.36 -0.00,594.27,-1.36"/>
    </edge>
    <edge id="D2DC" from="D" to="DC" priority="-1">
        <lane id="D2DC_0" index="0" speed="25.00" length="312.06" shape="320.86,599.87,-1.36 320.86,911.93,-1.36"/>
    </edge>
    <edge id="D2TL" from="D" to="TL" priority="-1">
        <lane id="D2TL_0" index="0" speed="25.00" length="301.66" shape="326.46,591.07,-1.33 628.11,591.07,-0.04"/>
    </edge>
    <edge id="DA2D" from="DA" to="D" priority="-1">
        <lane id="DA2D_0" index="0" speed="25.00" length="312.06" shape="320.86,273.41,-1.36 320.86,585.47,-1.36"/>
    </edge>
    <edge id="DB2D" from="DB" to="D" priority="-1">
        <lane id="DB2D_0" index="0" speed="25.00" length="312.06" shape="0.00,591.07,-1.36 312.06,591.07,-1.36"/>
    </edge>
    <edge id="DC2D" from="DC" to="D" priority="-1">
        <lane id="DC2D_0" index="0" speed="25.00" length="312.06" shape="317.66,911.93,-1.36 317.66,599.87,-1.36"/>
    </edge>
    <edge id="TL2A" from="TL" to="A" priority="-1">
        <lane id="TL2A_0" index="0" speed="30.00" length="292.79" shape="643.31,599.87,-0.09 643.31,892.63,-3.93"/>
        <lane id="TL2A_1" index="1" speed="30.00" length="292.79" shape="640.11,599.87,-0.09 640.11,892.63,-3.93"/>
    </edge>
    <edge id="TL2B" from="TL" to="B" priority="-1">
        <lane id="TL2B_0" index="0" speed="25.00" length="186.79" shape="648.91,591.07,-0.04 835.70,591.07,-0.84"/>
    </edge>
    <edge id="TL2C" from="TL" to="C" priority="-1">
        <lane id="TL2C_0" index="0" speed="30.00" length="278.76" shape="633.71,585.47,-0.09 633.71,306.73,-3.75"/>
        <lane id="TL2C_1" index="1" speed="30.00" length="278.76" shape="636.91,585.47,-0.09 636.91,306.73,-3.75"/>
    </edge>
    <edge id="TL2D" from="TL" to="D" priority="-1">
        <lane id="TL2D_0" index="0" speed="25.00" length="301.66" shape="628.11,594.27,-0.04 326.46,594.27,-1.33"/>
    </edge>

    <tlLogic id="A" type="static" programID="0" offset="0">
        <phase duration="39" state="GGGgrrrrGGGgrrrr"/>
        <phase duration="6"  state="yyyyrrrryyyyrrrr"/>
        <phase duration="39" state="rrrrGGGgrrrrGGGg"/>
        <phase duration="6"  state="rrrryyyyrrrryyyy"/>
    </tlLogic>
    <tlLogic id="AA" type="static" programID="0" offset="0">
        <phase duration="79" state="G"/>
        <phase duration="6"  state="y"/>
        <phase duration="5"  state="r"/>
    </tlLogic>
    <tlLogic id="AB" type="static" programID="0" offset="0">
        <phase duration="79" state="G"/>
        <phase duration="6"  state="y"/>
        <phase duration="5"  state="r"/>
    </tlLogic>
    <tlLogic id="AC" type="static" programID="0" offset="0">
        <phase duration="79" state="G"/>
        <phase duration="6"  state="y"/>
        <phase duration="5"  state="r"/>
    </tlLogic>
    <tlLogic id="B" type="static" programID="0" offset="0">
        <phase duration="40" state="GGrrGGrr"/>
        <phase duration="5"  state="yyrryyrr"/>
        <phase duration="40" state="rrGGrrGG"/>
        <phase duration="5"  state="rryyrryy"/>
    </tlLogic>
    <tlLogic id="BA" type="static" programID="0" offset="0">
        <phase duration="80" state="G"/>
        <phase duration="5"  state="y"/>
        <phase duration="5"  state="r"/>
    </tlLogic>
    <tlLogic id="BB" type="static" programID="0" offset="0">
        <phase duration="80" state="G"/>
        <phase duration="5"  state="y"/>
        <phase duration="5"  state="r"/>
    </tlLogic>
    <tlLogic id="BC" type="static" programID="0" offset="0">
        <phase duration="80" state="G"/>
        <phase duration="5"  state="y"/>
        <phase duration="5"  state="r"/>
    </tlLogic>
    <tlLogic id="C" type="static" programID="0" offset="0">
        <phase duration="39" state="GGGgrrrrGGGgrrrr"/>
        <phase duration="6"  state="yyyyrrrryyyyrrrr"/>
        <phase duration="39" state="rrrrGGGgrrrrGGGg"/>
        <phase duration="6"  state="rrrryyyyrrrryyyy"/>
    </tlLogic>
    <tlLogic id="CA" type="static" programID="0" offset="0">
        <phase duration="79" state="G"/>
        <phase duration="6"  state="y"/>
        <phase duration="5"  state="r"/>
    </tlLogic>
    <tlLogic id="CB" type="static" programID="0" offset="0">
        <phase duration="79" state="G"/>
        <phase duration="6"  state="y"/>
        <phase duration="5"  state="r"/>
    </tlLogic>
    <tlLogic id="CC" type="static" programID="0" offset="0">
        <phase duration="79" state="G"/>
        <phase duration="6"  state="y"/>
        <phase duration="5"  state="r"/>
    </tlLogic>
    <tlLogic id="D" type="static" programID="0" offset="0">
        <phase duration="40" state="GGrrGGrr"/>
        <phase duration="5"  state="yyrryyrr"/>
        <phase duration="40" state="rrGGrrGG"/>
        <phase duration="5"  state="rryyrryy"/>
    </tlLogic>
    <tlLogic id="DA" type="static" programID="0" offset="0">
        <phase duration="80" state="G"/>
        <phase duration="5"  state="y"/>
        <phase duration="5"  state="r"/>
    </tlLogic>
    <tlLogic id="DB" type="static" programID="0" offset="0">
        <phase duration="80" state="G"/>
        <phase duration="5"  state="y"/>
        <phase duration="5"  state="r"/>
    </tlLogic>
    <tlLogic id="DC" type="static" programID="0" offset="0">
        <phase duration="80" state="G"/>
        <phase duration="5"  state="y"/>
        <phase duration="5"  state="r"/>
    </tlLogic>
    <tlLogic id="TL" type="static" programID="0" offset="0">
        <phase duration="39" state="GGGgsrGGGgsr"/>
        <phase duration="6"  state="yyyysryyyysr"/>
        <phase duration="39" state="srrrGGsrrrGG"/>
        <phase duration="6"  state="srrryysrrryy"/>
    </tlLogic>

    <junction id="A" type="traffic_light" x="638.51" y="903.03" z="-4.07" incLanes="AB2A_0 AB2A_1 AC2A_0 AC2A_1 TL2A_0 TL2A_1 AA2A_0 AA2A_1" intLanes=":A_0_0 :A_1_0 :A_1_1 :A_16_0 :A_4_0 :A_5_0 :A_5_1 :A_17_0 :A_8_0 :A_9_0 :A_9_1 :A_18_0 :A_12_0 :A_13_0 :A_13_1 :A_19_0" shape="632.11,913.43,-4.07 644.91,913.43,-4.07 645.36,911.21,-4.07 645.91,910.43,-4.07 646.69,909.88,-4.07 647.69,909.54,-4.07 648.91,909.43,-4.07 648.91,896.63,-4.07 646.69,896.19,-4.07 645.91,895.63,-4.07 645.36,894.85,-4.07 645.02,893.85,-4.07 644.91,892.63,-4.07 632.11,892.63,-4.07 631.67,894.85,-4.07 631.11,895.63,-4.07 630.34,896.19,-4.07 629.34,896.52,-4.07 628.11,896.63,-4.07 628.11,909.43,-4.07 630.34,909.88,-4.07 631.11,910.43,-4.07 631.67,911.21,-4.07 632.00,912.21,-4.07">
        <request index="0"  response="0000000000000000" foes="0000000001100000" cont="0"/>
        <request index="1"  response="1000000010000000" foes="1111100011100000" cont="0"/>
        <request index="2"  response="1000000010000000" foes="1111100011100000" cont="0"/>
        <request index="3"  response="1000011010000000" foes="1110011011100000" cont="1"/>
        <request index="4"  response="0000011000000000" foes="0000011000000000" cont="0"/>
        <request index="5"  response="0000111000001111" foes="1000111000001111" cont="0"/>
        <request index="6"  response="0000111000001111" foes="1000111000001111" cont="0"/>
        <request index="7"  response="0110111000001110" foes="0110111000001110" cont="1"/>
        <request index="8"  response="0000000000000000" foes="0110000000000000" cont="0"/>
        <request index="9"  response="1000000010000000" foes="1110000011111000" cont="0"/>