<?xml version="1.0" encoding="UTF-8"?>

<!-- generated on 2022-10-11 16:45:19 by Eclipse SUMO netconvert Version 1.14.1
<configuration xmlns:xsi="http://www.w3.org/2001/XMLSchema-instance" xsi:noNamespaceSchemaLocation="http://sumo.dlr.de/xsd/netconvertConfiguration.xsd">

    <input>
        <node-files value="../data/salt-lake-city/nodes.nod.xml"/>
        <edge-files value="../data/salt-lake-city/edges.edg.xml"/>
        <connection-files value="../data/salt-lake-city/connections.con.xml"/>
    </input>

    <output>
        <output-file value="../data/salt-lake-city/sumo/net/264.net.xml"/>
    </output>

    <tls_building>
        <tls.minor-left.max-speed value="1"/>
    </tls_building>

    <report>
        <verbose value="true"/>
    </report>

</configuration>
-->

<net version="1.9" junctionCornerDetail="5" limitTurnSpeed="5.50" xmlns:xsi="http://www.w3.org/2001/XMLSchema-instance" xsi:noNamespaceSchemaLocation="http://sumo.dlr.de/xsd/net_file.xsd">

    <location netOffset="831.89,662.14" convBoundary="0.00,0.00,1272.32,1078.09" origBoundary="-831.89,-662.14,440.43,415.95" projParameter="!"/>

    <edge id=":A_0" function="internal">
        <lane id=":A_0_0" index="0" speed="7.33" length="11.73" shape="823.89,703.84,-0.16 823.34,701.39,-0.16 821.69,699.64,-0.16 818.94,698.59,-0.16 815.09,698.24,-0.16"/>
    </edge>
    <edge id=":A_1" function="internal">
        <lane id=":A_1_0" index="0" speed="40.00" length="33.80" shape="823.89,703.84,-0.16 823.39,694.64,-0.13 822.29,687.74,-0.11 821.19,680.50,-0.08 820.69,670.24,-0.05"/>
        <lane id=":A_1_1" index="1" speed="40.00" length="33.80" shape="827.09,703.84,-0.16 826.59,694.64,-0.13 825.49,687.74,-0.11 824.39,680.50,-0.08 823.89,670.24,-0.05"/>
        <lane id=":A_1_2" index="2" speed="40.00" length="33.80" shape="830.29,703.84,-0.16 829.79,694.64,-0.13 828.69,687.74,-0.11 827.59,680.50,-0.08 827.09,670.24,-0.05"/>
    </edge>
    <edge id=":A_4" function="internal">
        <lane id=":A_4_0" index="0" speed="11.36" length="12.06" shape="830.29,703.84,-0.16 831.44,695.79,-0.16 833.46,692.42,-0.16"/>
    </edge>
    <edge id=":A_20" function="internal">
        <lane id=":A_20_0" index="0" speed="11.36" length="17.62" shape="833.46,692.42,-0.16 834.89,690.04,-0.16 840.64,686.59,-0.16 848.69,685.44,-0.16"/>
    </edge>
    <edge id=":A_5" function="internal">
        <lane id=":A_5_0" index="0" speed="7.33" length="11.73" shape="848.69,695.04,-0.16 846.24,695.59,-0.16 844.49,697.24,-0.16 843.44,699.99,-0.16 843.09,703.84,-0.16"/>
    </edge>
    <edge id=":A_6" function="internal">
        <lane id=":A_6_0" index="0" speed="40.00" length="33.80" shape="848.69,695.04,-0.16 839.49,695.54,-0.16 832.60,696.64,-0.16 825.35,697.74,-0.16 815.09,698.24,-0.16"/>
        <lane id=":A_6_1" index="1" speed="40.00" length="33.80" shape="848.69,691.84,-0.16 839.49,692.34,-0.16 832.60,693.44,-0.16 825.35,694.54,-0.16 815.09,695.04,-0.16"/>
        <lane id=":A_6_2" index="2" speed="40.00" length="33.80" shape="848.69,688.64,-0.16 839.49,689.14,-0.16 832.60,690.24,-0.16 825.35,691.34,-0.16 815.09,691.84,-0.16"/>
    </edge>
    <edge id=":A_9" function="internal">
        <lane id=":A_9_0" index="0" speed="11.36" length="12.06" shape="848.69,688.64,-0.16 840.64,687.49,-0.13 837.28,685.47,-0.12"/>
    </edge>
    <edge id=":A_21" function="internal">
        <lane id=":A_21_0" index="0" speed="11.36" length="17.62" shape="837.28,685.47,-0.12 834.89,684.04,-0.11 831.44,678.29,-0.08 830.29,670.24,-0.05"/>
    </edge>
    <edge id=":A_10" function="internal">
        <lane id=":A_10_0" index="0" speed="7.33" length="11.73" shape="839.89,670.24,-0.05 840.44,672.69,-0.07 842.09,674.44,-0.10 844.84,675.49,-0.12 848.69,675.84,-0.16"/>
    </edge>
    <edge id=":A_11" function="internal">
        <lane id=":A_11_0" index="0" speed="40.00" length="33.80" shape="839.89,670.24,-0.05 840.39,679.45,-0.08 841.49,686.34,-0.10 842.59,693.58,-0.13 843.09,703.84,-0.16"/>
        <lane id=":A_11_1" index="1" speed="40.00" length="33.80" shape="836.69,670.24,-0.05 837.19,679.45,-0.08 838.29,686.34,-0.10 839.39,693.58,-0.13 839.89,703.84,-0.16"/>
        <lane id=":A_11_2" index="2" speed="40.00" length="33.80" shape="833.49,670.24,-0.05 833.99,679.45,-0.08 835.09,686.34,-0.10 836.19,693.58,-0.13 836.69,703.84,-0.16"/>
    </edge>
    <edge id=":A_14" function="internal">
        <lane id=":A_14_0" index="0" speed="11.36" length="12.06" shape="833.49,670.24,-0.05 832.34,678.29,-0.08 830.32,681.66,-0.10"/>
    </edge>
    <edge id=":A_22" function="internal">
        <lane id=":A_22_0" index="0" speed="11.36" length="17.62" shape="830.32,681.66,-0.10 828.89,684.04,-0.11 823.14,687.49,-0.13 815.09,688.64,-0.16"/>
    </edge>
    <edge id=":A_15" function="internal">
        <lane id=":A_15_0" index="0" speed="7.33" length="11.73" shape="815.09,679.04,-0.16 817.54,678.49,-0.14 819.29,676.84,-0.11 820.34,674.09,-0.09 820.69,670.24,-0.05"/>
    </edge>
    <edge id=":A_16" function="internal">
        <lane id=":A_16_0" index="0" speed="40.00" length="33.80" shape="815.09,679.04,-0.16 824.30,678.54,-0.16 831.19,677.44,-0.16 838.43,676.34,-0.16 848.69,675.84,-0.16"/>
        <lane id=":A_16_1" index="1" speed="40.00" length="33.80" shape="815.09,682.24,-0.16 824.30,681.74,-0.16 831.19,680.64,-0.16 838.43,679.54,-0.16 848.69,679.04,-0.16"/>
        <lane id=":A_16_2" index="2" speed="40.00" length="33.80" shape="815.09,685.44,-0.16 824.30,684.94,-0.16 831.19,683.84,-0.16 838.43,682.74,-0.16 848.69,682.24,-0.16"/>
    </edge>
    <edge id=":A_19" function="internal">
        <lane id=":A_19_0" index="0" speed="11.36" length="12.06" shape="815.09,685.44,-0.16 823.14,686.59,-0.16 826.51,688.61,-0.16"/>
    </edge>
    <edge id=":A_23" function="internal">
        <lane id=":A_23_0" index="0" speed="11.36" length="17.62" shape="826.51,688.61,-0.16 828.89,690.04,-0.16 832.34,695.79,-0.16 833.49,703.84,-0.16"/>
    </edge>
    <edge id=":AA_0" function="internal">
        <lane id=":AA_0_0" index="0" speed="3.65" length="4.67" shape="806.99,688.64,-0.16 805.79,687.84,-0.16 805.39,687.04,-0.16 805.79,686.24,-0.16 806.99,685.44,-0.16"/>
    </edge>
    <edge id=":AB_0" function="internal">
        <lane id=":AB_0_0" index="0" speed="3.65" length="4.67" shape="833.49,711.94,-0.16 832.69,713.14,-0.16 831.89,713.54,-0.16 831.09,713.14,-0.16 830.29,711.94,-0.16"/>
    </edge>
    <edge id=":AC_0" function="internal">
        <lane id=":AC_0_0" index="0" speed="3.65" length="4.67" shape="856.80,685.44,-0.16 858.00,686.24,-0.16 858.40,687.04,-0.16 858.00,687.84,-0.16 856.80,688.64,-0.16"/>
    </edge>
    <edge id=":C_0" function="internal">
        <lane id=":C_0_0" index="0" speed="8.10" length="14.57" shape="827.09,347.87,-0.48 826.34,345.42,-0.48 824.09,343.67,-0.49 820.34,342.62,-0.50 815.09,342.27,-0.50"/>
    </edge>
    <edge id=":C_1" function="internal">
        <lane id=":C_1_0" index="0" speed="30.00" length="34.33" shape="827.09,347.87,-0.48 826.09,340.81,-0.48 823.89,333.73,-0.49 821.69,325.33,-0.50 820.69,314.27,-0.50"/>
        <lane id=":C_1_1" index="1" speed="30.00" length="34.33" shape="830.29,347.87,-0.48 829.29,340.81,-0.48 827.09,333.73,-0.49 824.89,325.33,-0.50 823.89,314.27,-0.50"/>
    </edge>
    <edge id=":C_3" function="internal">
        <lane id=":C_3_0" index="0" speed="11.36" length="15.40" shape="830.29,347.87,-0.48 831.44,339.82,-0.49 834.89,334.07,-0.49 835.38,333.78,-0.49"/>
    </edge>
    <edge id=":C_16" function="internal">
        <lane id=":C_16_0" index="0" speed="11.36" length="14.27" shape="835.38,333.78,-0.49 840.64,330.62,-0.50 848.69,329.47,-0.50"/>
    </edge>
    <edge id=":C_4" function="internal">
        <lane id=":C_4_0" index="0" speed="8.10" length="14.57" shape="848.69,335.87,-0.50 846.24,336.62,-0.50 844.49,338.87,-0.50 843.44,342.62,-0.49 843.09,347.87,-0.48"/>
    </edge>
    <edge id=":C_5" function="internal">
        <lane id=":C_5_0" index="0" speed="30.00" length="34.33" shape="848.69,335.87,-0.50 841.63,336.87,-0.50 834.56,339.07,-0.50 826.15,341.27,-0.50 815.09,342.27,-0.50"/>
        <lane id=":C_5_1" index="1" speed="30.00" length="34.33" shape="848.69,332.67,-0.50 841.63,333.67,-0.50 834.56,335.87,-0.50 826.15,338.07,-0.50 815.09,339.07,-0.50"/>
    </edge>
    <edge id=":C_7" function="internal">
        <lane id=":C_7_0" index="0" speed="11.36" length="15.40" shape="848.69,332.67,-0.50 840.64,331.52,-0.50 834.89,328.07,-0.50 834.60,327.59,-0.50"/>
    </edge>
    <edge id=":C_17" function="internal">
        <lane id=":C_17_0" index="0" speed="11.36" length="14.27" shape="834.60,327.59,-0.50 831.44,322.32,-0.50 830.29,314.27,-0.50"/>
    </edge>
    <edge id=":C_8" function="internal">
        <lane id=":C_8_0" index="0" speed="8.10" length="14.57" shape="836.69,314.27,-0.50 837.44,316.72,-0.50 839.69,318.47,-0.50 843.44,319.52,-0.50 848.69,319.87,-0.50"/>
    </edge>
    <edge id=":C_9" function="internal">
        <lane id=":C_9_0" index="0" speed="30.00" length="34.33" shape="836.69,314.27,-0.50 837.69,321.33,-0.50 839.89,328.41,-0.49 842.09,336.81,-0.49 843.09,347.87,-0.48"/>
        <lane id=":C_9_1" index="1" speed="30.00" length="34.33" shape="833.49,314.27,-0.50 834.49,321.33,-0.50 836.69,328.41,-0.49 838.89,336.81,-0.49 839.89,347.87,-0.48"/>
    </edge>
    <edge id=":C_11" function="internal">
        <lane id=":C_11_0" index="0" speed="11.36" length="15.40" shape="833.49,314.27,-0.50 832.34,322.32,-0.50 828.89,328.07,-0.50 828.41,328.36,-0.50"/>
    </edge>
    <edge id=":C_18" function="internal">
        <lane id=":C_18_0" index="0" speed="11.36" length="14.27" shape="828.41,328.36,-0.50 823.14,331.52,-0.50 815.09,332.67,-0.50"/>
    </edge>
    <edge id=":C_12" function="internal">
        <lane id=":C_12_0" index="0" speed="8.10" length="14.57" shape="815.09,326.27,-0.50 817.54,325.52,-0.50 819.29,323.27,-0.50 820.34,319.52,-0.50 820.69,314.27,-0.50"/>
    </edge>
    <edge id=":C_13" function="internal">
        <lane id=":C_13_0" index="0" speed="30.00" length="34.33" shape="815.09,326.27,-0.50 822.16,325.27,-0.50 829.23,323.07,-0.50 837.64,320.87,-0.50 848.69,319.87,-0.50"/>
        <lane id=":C_13_1" index="1" speed="30.00" length="34.33" shape="815.09,329.47,-0.50 822.16,328.47,-0.50 829.23,326.27,-0.50 837.64,324.07,-0.50 848.69,323.07,-0.50"/>
    </edge>
    <edge id=":C_15" function="internal">
        <lane id=":C_15_0" index="0" speed="11.36" length="15.40" shape="815.09,329.47,-0.50 823.14,330.62,-0.50 828.89,334.07,-0.49 829.19,334.55,-0.49"/>
    </edge>
    <edge id=":C_19" function="internal">
        <lane id=":C_19_0" index="0" speed="11.36" length="14.27" shape="829.19,334.55,-0.49 832.34,339.82,-0.49 833.49,347.87,-0.48"/>
    </edge>
    <edge id=":CA_0" function="internal">
        <lane id=":CA_0_0" index="0" speed="3.65" length="4.67" shape="1162.96,329.47,-0.50 1164.16,330.27,-0.50 1164.56,331.07,-0.50 1164.16,331.87,-0.50 1162.96,332.67,-0.50"/>
    </edge>
    <edge id=":CB_0" function="internal">
        <lane id=":CB_0_0" index="0" speed="3.65" length="4.67" shape="830.29,-0.00,-0.50 831.09,-1.20,-0.50 831.89,-1.60,-0.50 832.69,-1.20,-0.50 833.49,-0.00,-0.50"/>
    </edge>
    <edge id=":CC_0" function="internal">
        <lane id=":CC_0_0" index="0" speed="3.65" length="4.67" shape="500.83,332.67,-0.50 499.63,331.87,-0.50 499.23,331.07,-0.50 499.63,330.27,-0.50 500.83,329.47,-0.50"/>
    </edge>
    <edge id=":TL_0" function="internal">
        <lane id=":TL_0_0" index="0" speed="35.00" length="25.06" shape="820.69,666.14,-0.03 821.69,658.56,-0.03 823.89,653.23,-0.03 826.09,648.36,-0.03 827.09,642.14,-0.03"/>
        <lane id=":TL_0_1" index="1" speed="35.00" length="25.06" shape="823.89,666.14,-0.03 824.89,658.56,-0.03 827.09,653.23,-0.03 829.29,648.36,-0.03 830.29,642.14,-0.03"/>
    </edge>
    <edge id=":TL_2" function="internal">
        <lane id=":TL_2_0" index="0" speed="10.54" length="10.51" shape="827.09,666.14,-0.03 828.44,662.29,-0.02 832.49,659.54,-0.01 833.99,659.17,-0.01"/>
        <lane id=":TL_2_1" index="1" speed="9.51" length="5.72" shape="830.29,666.14,-0.03 831.44,663.69,-0.02 834.14,662.32,-0.01"/>
    </edge>
    <edge id=":TL_12" function="internal">
        <lane id=":TL_12_0" index="0" speed="10.54" length="14.88" shape="833.99,659.17,-0.01 839.24,657.89,0.00 848.69,657.34,0.02"/>
    </edge>
    <edge id=":TL_13" function="internal">
        <lane id=":TL_13_0" index="0" speed="9.51" length="14.75" shape="834.14,662.32,-0.01 834.89,661.94,-0.01 840.64,660.89,0.00 848.69,660.54,0.02"/>
    </edge>
    <edge id=":TL_4" function="internal">
        <lane id=":TL_4_0" index="0" speed="8.10" length="14.57" shape="843.09,642.14,-0.03 843.44,647.39,-0.01 844.49,651.14,0.00 846.24,653.39,0.01 848.69,654.14,0.02"/>
    </edge>
    <edge id=":TL_5" function="internal">
        <lane id=":TL_5_0" index="0" speed="35.00" length="24.00" shape="839.89,642.14,-0.03 839.89,666.14,-0.03"/>
        <lane id=":TL_5_1" index="1" speed="35.00" length="24.00" shape="836.69,642.14,-0.03 836.69,666.14,-0.03"/>
    </edge>
    <edge id=":TL_7" function="internal">
        <lane id=":TL_7_0" index="0" speed="8.10" length="14.57" shape="815.09,647.74,-0.05 820.34,647.39,-0.04 824.09,646.34,-0.04 826.34,644.59,-0.03 827.09,642.14,-0.03"/>
    </edge>
    <edge id=":TL_8" function="internal">
        <lane id=":TL_8_0" index="0" speed="45.00" length="33.80" shape="815.09,650.94,-0.05 825.35,651.44,-0.03 832.60,652.54,-0.01 839.49,653.64,0.00 848.69,654.14,0.02"/>
        <lane id=":TL_8_1" index="1" speed="45.00" length="33.80" shape="815.09,654.14,-0.05 825.35,654.64,-0.03 832.60,655.74,-0.01 839.49,656.84,0.00 848.69,657.34,0.02"/>
        <lane id=":TL_8_2" index="2" speed="45.00" length="33.80" shape="815.09,657.34,-0.05 825.35,657.84,-0.03 832.60,658.94,-0.01 839.49,660.04,0.00 848.69,660.54,0.02"/>
    </edge>
    <edge id=":TL_11" function="internal">
        <lane id=":TL_11_0" index="0" speed="9.51" length="20.48" shape="815.09,660.54,-0.05 823.14,660.89,-0.04 828.89,661.94,-0.03 832.34,663.69,-0.03 833.49,666.14,-0.03"/>
    </edge>

    <edge id="A2AA" from="A" to="AA" priority="-1">
        <lane id="A2AA_0" index="0" speed="40.00" length="8.10" shape="815.09,698.24,-0.16 806.99,698.24,-0.16"/>
        <lane id="A2AA_1" index="1" speed="40.00" length="8.10" shape="815.09,695.04,-0.16 806.99,695.04,-0.16"/>
        <lane id="A2AA_2" index="2" speed="40.00" length="8.10" shape="815.09,691.84,-0.16 806.99,691.84,-0.16"/>
        <lane id="A2AA_3" index="3" speed="40.00" length="8.10" shape="815.09,688.64,-0.16 806.99,688.64,-0.16"/>
    </edge>
    <edge id="A2AB" from="A" to="AB" priority="-1">
        <lane id="A2AB_0" index="0" speed="40.00" length="8.10" shape="843.09,703.84,-0.16 843.09,711.94,-0.16"/>
        <lane id="A2AB_1" index="1" speed="40.00" length="8.10" shape="839.89,703.84,-0.16 839.89,711.94,-0.16"/>
        <lane id="A2AB_2" index="2" speed="40.00" length="8.10" shape="836.69,703.84,-0.16 836.69,711.94,-0.16"/>
        <lane id="A2AB_3" index="3" speed="40.00" length="8.10" shape="833.49,703.84,-0.16 833.49,711.94,-0.16"/>
    </edge>
    <edge id="A2AC" from="A" to="AC" priority="-1">
        <lane id="A2AC_0" index="0" speed="40.00" length="8.10" shape="848.69,675.84,-0.16 856.80,675.84,-0.16"/>
        <lane id="A2AC_1" index="1" speed="40.00" length="8.10" shape="848.69,679.04,-0.16 856.80,679.04,-0.16"/>
        <lane id="A2AC_2" index="2" speed="40.00" length="8.10" shape="848.69,682.24,-0.16 856.80,682.24,-0.16"/>
        <lane id="A2AC_3" index="3" speed="40.00" length="8.10" shape="848.69,685.44,-0.16 856.80,685.44,-0.16"/>
    </edge>
    <edge id="A2TL" from="A" to="TL" priority="-1">
        <lane id="A2TL_0" index="0" speed="40.00" length="4.10" shape="820.69,670.24,-0.05 820.69,666.14,-0.03"/>
        <lane id="A2TL_1" index="1" speed="40.00" length="4.10" shape="823.89,670.24,-0.05 823.89,666.14,-0.03"/>
        <lane id="A2TL_2" index="2" speed="40.00" length="4.10" shape="827.09,670.24,-0.05 827.09,666.14,-0.03"/>
        <lane id="A2TL_3" index="3" speed="40.00" length="4.10" shape="830.29,670.24,-0.05 830.29,666.14,-0.03"/>
    </edge>
    <edge id="AA2A" from="AA" to="A" priority="-1">
        <lane id="AA2A_0" index="0" speed="40.00" length="8.10" shape="806.99,679.04,-0.16 815.09,679.04,-0.16"/>
        <lane id="AA2A_1" index="1" speed="40.00" length="8.10" shape="806.99,682.24,-0.16 815.09,682.24,-0.16"/>
        <lane id="AA2A_2" index="2" speed="40.00" length="8.10" shape="806.99,685.44,-0.16 815.09,685.44,-0.16"/>
    </edge>
    <edge id="AB2A" from="AB" to="A" priority="-1">
        <lane id="AB2A_0" index="0" speed="40.00" length="8.10" shape="823.89,711.94,-0.16 823.89,703.84,-0.16"/>
        <lane id="AB2A_1" index="1" speed="40.00" length="8.10" shape="827.09,711.94,-0.16 827.09,703.84,-0.16"/>
        <lane id="AB2A_2" index="2" speed="40.00" length="8.10" shape="830.29,711.94,-0.16 830.29,703.84,-0.16"/>
    </edge>
    <edge id="AC2A" from="AC" to="A" priority="-1">
        <lane id="AC2A_0" index="0" speed="40.00" length="8.10" shape="856.80,695.04,-0.16 848.69,695.04,-0.16"/>
        <lane id="AC2A_1" index="1" speed="40.00" length="8.10" shape="856.80,691.84,-0.16 848.69,691.84,-0.16"/>
        <lane id="AC2A_2" index="2" speed="40.00" length="8.10" shape="856.80,688.64,-0.16 848.69,688.64,-0.16"/>
    </edge>
    <edge id="BA2B" from="BA" to="B" priority="-1">
        <lane id="BA2B_0" index="0" speed="45.00" length="209.11" shape="1044.11,882.35,0.27 1044.11,673.24,0.27"/>
        <lane id="BA2B_1" index="1" speed="45.00" length="209.11" shape="1047.31,882.35,0.27 1047.31,673.24,0.27"/>
        <lane id="BA2B_2" index="2" speed="45.00" length="209.11" shape="1050.51,882.35,0.27 1050.51,673.24,0.27"/>
    </edge>
    <edge id="BB2B" from="BB" to="B" priority="-1">
        <lane id="BB2B_0" index="0" speed="45.00" length="209.11" shape="1272.32,670.14,0.27 1063.21,670.14,0.27"/>
        <lane id="BB2B_1" index="1" speed="45.00" length="209.11" shape="1272.32,666.94,0.27 1063.21,666.94,0.27"/>
        <lane id="BB2B_2" index="2" speed="45.00" length="209.11" shape="1272.32,663.74,0.27 1063.21,663.74,0.27"/>
    </edge>
    <edge id="BC2B" from="BC" to="B" priority="-1">
        <lane id="BC2B_0" index="0" speed="45.00" length="209.11" shape="1060.11,441.92,0.27 1060.11,651.04,0.27"/>
        <lane id="BC2B_1" index="1" speed="45.00" length="209.11" shape="1056.91,441.92,0.27 1056.91,651.04,0.27"/>
        <lane id="BC2B_2" index="2" speed="45.00" length="209.11" shape="1053.71,441.92,0.27 1053.71,651.04,0.27"/>
    </edge>
    <edge id="C2CA" from="C" to="CA" priority="-1">
        <lane id="C2CA_0" index="0" speed="30.00" length="314.27" shape="848.69,319.87,-0.50 1162.96,319.87,-0.50"/>
        <lane id="C2CA_1" index="1" speed="30.00" length="314.27" shape="848.69,323.07,-0.50 1162.96,323.07,-0.50"/>
        <lane id="C2CA_2" index="2" speed="30.00" length="314.27" shape="848.69,326.27,-0.50 1162.96,326.27,-0.50"/>
        <lane id="C2CA_3" index="3" speed="30.00" length="314.27" shape="848.69,329.47,-0.50 1162.96,329.47,-0.50"/>
    </edge>
    <edge id="C2CB" from="C" to="CB" priority="-1">
        <lane id="C2CB_0" index="0" speed="30.00" length="314.27" shape="820.69,314.27,-0.50 820.69,-0.00,-0.50"/>
        <lane id="C2CB_1" index="1" speed="30.00" length="314.27" shape="823.89,314.27,-0.50 823.89,-0.00,-0.50"/>
        <lane id="C2CB_2" index="2" speed="30.00" length="314.27" shape="827.09,314.27,-0.50 827.09,-0.00,-0.50"/>
        <lane id="C2CB_3" index="3" speed="30.00" length="314.27" shape="830.29,314.27,-0.50 830.29,-0.00,-0.50"/>
    </edge>
    <edge id="C2CC" from="C" to="CC" priority="-1">
        <lane id="C2CC_0" index="0" speed="30.00" length="314.27" shape="815.09,342.27,-0.50 500.83,342.27,-0.50"/>
        <lane id="C2CC_1" index="1" speed="30.00" length="314.27" shape="815.09,339.07,-0.50 500.83,339.07,-0.50"/>
        <lane id="C2CC_2" index="2" speed="30.00" length="314.27" shape="815.09,335.87,-0.50 500.83,335.87,-0.50"/>
        <lane id="C2CC_3" index="3" speed="30.00" length="314.27" shape="815.09,332.67,-0.50 500.83,332.67,-0.50"/>
    </edge>
    <edge id="C2TL" from="C" to="TL" priority="-1">
        <lane id="C2TL_0" index="0" speed="30.00" length="294.27" shape="843.09,347.87,-0.48 843.09,642.14,-0.03"/>
        <lane id="C2TL_1" index="1" speed="30.00" length="294.27" shape="839.89,347.87,-0.48 839.89,642.14,-0.03"/>
        <lane id="C2TL_2" index="2" speed="30.00" length="294.27" shape="836.69,347.87,-0.48 836.69,642.14,-0.03"/>
        <lane id="C2TL_3" index="3" speed="30.00" length="294.27" shape="833.49,347.87,-0.48 833.49,642.14,-0.03"/>
    </edge>
    <edge id="CA2C" from="CA" to="C" priority="-1">
        <lane id="CA2C_0" index="0" speed="30.00" length="314.27" shape="1162.96,335.87,-0.50 848.69,335.87,-0.50"/>
        <lane id="CA2C_1" index="1" speed="30.00" length="314.27" shape="1162.96,332.67,-0.50 848.69,332.67,-0.50"/>
    </edge>
    <edge id="CB2C" from="CB" to="C" priority="-1">
        <lane id="CB2C_0" index="0" speed="30.00" length="314.27" shape="836.69,-0.00,-0.50 836.69,314.27,-0.50"/>
        <lane id="CB2C_1" index="1" speed="30.00" length="314.27" shape="833.49,-0.00,-0.50 833.49,314.27,-0.50"/>
    </edge>
    <edge id="CC2C" from="CC" to="C" priority="-1">
        <lane id="CC2C_0" index="0" speed="30.00" length="314.27" shape="500.83,326.27,-0.50 815.09,326.27,-0.50"/>
        <lane id="CC2C_1" index="1" speed="30.00" length="314.27" shape="500.83,329.47,-0.50 815.09,329.47,-0.50"/>
    </edge>
    <edge id="D2DA" from="D" to="DA" priority="-1">
        <lane id="D2DA_0" index="0" speed="45.00" length="398.45" shape="401.55,644.64,-1.27 401.55,246.19,-1.27"/>
        <lane id="D2DA_1" index="1" speed="45.00" length="398.45" shape="404.75,644.64,-1.27 404.75,246.19,-1.27"/>
        <lane id="D2DA_2" index="2" speed="45.00" length="398.45" shape="407.95,644.64,-1.27 407.95,246.19,-1.27"/>
        <lane id="D2DA_3" index="3" speed="45.00" length="398.45" shape="411.15,644.64,-1.27 411.15,246.19,-1.27"/>
        <lane id="D2DA_4" index="4" speed="45.00" length="398.45" shape="414.35,644.64,-1.27 414.35,246.19,-1.27"/>
    </edge>
    <edge id="D2DB" from="D" to="DB" priority="-1">
        <lane id="D2DB_0" index="0" speed="45.00" length="398.45" shape="398.45,676.54,-1.27 -0.00,676.54,-1.27"/>
        <lane id="D2DB_1" index="1" speed="45.00" length="398.45" shape="398.45,673.34,-1.27 -0.00,673.34,-1.27"/>
        <lane id="D2DB_2" index="2" speed="45.00" length="398.45" shape="398.45,670.14,-1.27 -0.00,670.14,-1.27"/>
        <lane id="D2DB_3" index="3" speed="45.00" length="398.45" shape="398.45,666.94,-1.27 -0.00,666.94,-1.27"/>
        <lane id="D2DB_4" index="4" speed="45.00" length="398.45" shape="398.45,663.74,-1.27 -0.00,663.74,-1.27"/>
    </edge>
    <edge id="D2DC" from="D" to="DC" priority="-1">
        <lane id="D2DC_0" index="0" speed="45.00" length="398.45" shape="430.35,679.64,-1.27 430.35,1078.09,-1.27"/>
        <lane id="D2DC_1" index="1" speed="45.00" length="398.45" shape="427.15,679.64,-1.27 427.15,1078.09,-1.27"/>
        <lane id="D2DC_2" index="2" speed="45.00" length="398.45" shape="423.95,679.64,-1.27 423.95,1078.09,-1.27"/>
        <lane id="D2DC_3" index="3" speed="45.00" length="398.45" shape="420.75,679.64,-1.27 420.75,1078.09,-1.27"/>
        <lane id="D2DC_4" index="4" speed="45.00" length="398.45" shape="417.55,679.64,-1.27 417.55,1078.09,-1.27"/>
    </edge>
    <edge id="D2TL" from="D" to="TL" priority="-1">
        <lane id="D2TL_0" index="0" speed="45.00" length="381.65" shape="433.45,647.74,-1.21 815.09,647.74,-0.05"/>
        <lane id="D2TL_1" index="1" speed="45.00" length="381.65" shape="433.45,650.94,-1.21 815.09,650.94,-0.05"/>
        <lane id="D2TL_2" index="2" speed="45.00" length="381.65" shape="433.45,654.14,-1.21 815.09,654.14,-0.05"/>
        <lane id="D2TL_3" index="3" speed="45.00" length="381.65" shape="433.45,657.34,-1.21 815.09,657.34,-0.05"/>
        <lane id="D2TL_4" index="4" speed="45.00" length="381.65" shape="433.45,660.54,-1.21 815.09,660.54,-0.05"/>
    </edge>
    <edge id="TL2A" from="TL" to="A" priority="-1">
        <lane id="TL2A_0" index="0" speed="40.00" length="4.10" shape="839.89,666.14,-0.03 839.89,670.24,-0.05"/>
        <lane id="TL2A_1" index="1" speed="40.00" length="4.10" shape="836.69,666.14,-0.03 836.69,670.24,-0.05"/>
        <lane id="TL2A_2" index="2" speed="40.00" length="4.10" shape="833.49,666.14,-0.03 833.49,670.24,-0.05"/>
    </edge>
    <edge id="TL2B" from="TL" to="B" priority="-1">
        <lane id="TL2B_0" index="0" speed="45.00" length="192.31" shape="848.69,654.14,0.02 1041.01,654.14,0.25"/>
        <lane id="TL2B_1" index="1" speed="45.00" length="192.31" shape="848.69,657.34,0.02 1041.01,657.34,0.25"/>
        <lane id="TL2B_2" index="2" speed="45.00" length="192.31" shape="848.69,660.54,0.02 1041.01,660.54,0.25"/>
    </edge>
    <edge id="TL2C" from="TL" to="C" priority="-1">
        <lane id="TL2C_0" index="0" speed="30.00" length="294.27" shape="827.09,642.14,-0.03 827.09,347.87,-0.48"/>
        <lane id="TL2C_1" index="1" speed="30.00" length="294.27" shape="830.29,642.14,-0.03 830.29,347.87,-0.48"/>
    </edge>

    <tlLogic id="A" type="static" programID="0" offset="0">
        <phase duration="37" state="GGGGgrrrrrGGGGgrrrrr"/>
        <phase duration="8"  state="yyyyyrrrrryyyyyrrrrr"/>
        <phase duration="37" state="rrrrrGGGGgrrrrrGGGGg"/>
        <phase duration="8"  state="rrrrryyyyyrrrrryyyyy"/>
    </tlLogic>
    <tlLogic id="AA" type="static" programID="0" offset="0">
        <phase duration="77" state="G"/>
        <phase duration="8"  state="y"/>
        <phase duration="5"  state="r"/>
    </tlLogic>
    <tlLogic id="AB" type="static" programID="0" offset="0">
        <phase duration="77" state="G"/>
        <phase duration="8"  state="y"/>
        <phase duration="5"  state="r"/>
    </tlLogic>
    <tlLogic id="AC" type="static" programID="0" offset="0">
        <phase duration="77" state="G"/>
        <phase duration="8"  state="y"/>
        <phase duration="5"  state="r"/>
    </tlLogic>
    <tlLogic id="C" type="static" programID="0" offset="0">
        <phase duration="39" state="GGGgrrrrGGGgrrrr"/>
        <phase duration="6"  state="yyyyrrrryyyyrrrr"/>
        <phase duration="39" state="rrrrGGGgrrrrGGGg"/>
        <phase duration="6"  state="rrrryyyyrrrryyyy"/>
    </tlLogic>
    <tlLogic id="CA" type="static" programID="0" offset="0">
        <phase duration="79" state="G"/>
        <phase duration="6"  state="y"/>
        <phase duration="5"  state="r"/>
    </tlLogic>
    <tlLogic id="CB" type="static" programID="0" offset="0">
        <phase duration="79" state="G"/>
        <phase duration="6"  state="y"/>
        <phase duration="5"  state="r"/>
    </tlLogic>
    <tlLogic id="CC" type="static" programID="0" offset="0">
        <phase duration="79" state="G"/>
        <phase duration="6"  state="y"/>
        <phase duration="5"  state="r"/>
    </tlLogic>
    <tlLogic id="TL" type="static" programID="0" offset="0">
        <phase duration="28" state="GGrrGGGsrrrr"/>
        <phase duration="9"  state="yyrryyysrrrr"/>
        <phase duration="6"  state="GGGGrrrsrrrr"/>
        <phase duration="9"  state="yyyyrrrsrrrr"/>
        <phase duration="29" state="rrrrsrrGGGGG"/>
        <phase duration="9"  state="rrrrsrryyyyy"/>
    </tlLogic>

    <junction id="A" type="traffic_light" x="831.89" y="687.04" z="-0.16" incLanes="AB2A_0 AB2A_1 AB2A_2 AC2A_0 AC2A_1 AC2A_2 TL2A_0 TL2A_1 TL2A_2 AA2A_0 AA2A_1 AA2A_2" intLanes=":A_0_0 :A_1_0 :A_1_1 :A_1_2 :A_20_0 :A_5_0 :A_6_0 :A_6_1 :A_6_2 :A_21_0 :A_10_0 :A_11_0 :A_11_1 :A_11_2 :A_22_0 :A_15_0 :A_16_0 :A_16_1 :A_16_2 :A_23_0" shape="822.29,703.84,-0.16 844.69,703.84,-0.16 844.81,701.64,-0.16 845.14,699.84,-0.16 845.69,698.44,-0.16 846.47,697.44,-0.16 847.47,696.84,-0.16 848.69,696.64,-0.16 848.69,674.24,-0.16 846.49,674.13,-0.16 844.69,673.80,-0.16 843.29,673.24,-0.16 842.29,672.46,-0.16 841.69,671.46,-0.16 841.49,670.24,-0.16 819.09,670.24,-0.16 818.98,672.44,-0.16 818.65,674.24,-0.16 818.09,675.64,-0.16 817.32,676.64,-0.16 816.32,677.24,-0.16 815.09,677.44,-0.16 815.09,699.84,-0.16 817.29,699.95,-0.16 819.09,700.29,-0.16 820.49,700.84,-0.16 821.49,701.62,-0.16 822.09,702.62,-0.16">
        <request index="0"  response="00000000000000000000" foes="00000000000111000000" cont="0"/>
        <request index="1"  response="10000000000000000000" foes="11111100000111000000" cont="0"/>
        <request index="2"  response="10000000000000000000" foes="11111100000111000000" cont="0"/>
        <request index="3"  response="10000000000000000000" foes="11111100000111000000" cont="0"/>
        <request index="4"  response="10000011101000000000" foes="10000011101111000000" cont="1"/>
        <request index="5"  response="00000011100000000000" foes="00000011100000000000" cont="0"/>
        <request index="6"  response="00000011100000011111" foes="10000011100000011111" cont="0"/>
        <request index="7"  response="00000011100000011111" foes="10000011100000011111" cont="0"/>
        <request index="8"  response="00000011100000011111" foes="10000011100000011111" cont="0"/>
        <request index="9"  response="01110111100000010000" foes="01110111100000010000" cont="1"/>
        <request index="10" response="00000000000000000000" foes="01110000000000000000" cont="0"/>
        <request index="11" response="00000000001000000000" foes="01110000001111110000" cont="0"/>
        <request index="12" response="00000000001000000000" foes="01110000001111110000" cont="0"/>
        <request index="13" response="00000000001000000000" foes="01110000001111110000" cont="0"/>
        <request index="14" response="10000000001000001110" foes="11110000001000001110" cont="1"/>