<?xml version="1.0" encoding="UTF-8"?>

<!-- generated on 2022-10-11 16:45:20 by Eclipse SUMO netconvert Version 1.14.1
<configuration xmlns:xsi="http://www.w3.org/2001/XMLSchema-instance" xsi:noNamespaceSchemaLocation="http://sumo.dlr.de/xsd/netconvertConfiguration.xsd">

    <input>
        <node-files value="../data/salt-lake-city/nodes.nod.xml"/>
        <edge-files value="../data/salt-lake-city/edges.edg.xml"/>
        <connection-files value="../data/salt-lake-city/connections.con.xml"/>
    </input>

    <output>
        <output-file value="../data/salt-lake-city/sumo/net/272.net.xml"/>
    </output>

    <tls_building>
        <tls.minor-left.max-speed value="1"/>
    </tls_building>

    <report>
        <verbose value="true"/>
    </report>

</configuration>
-->

<net version="1.9" junctionCornerDetail="5" limitTurnSpeed="5.50" xmlns:xsi="http://www.w3.org/2001/XMLSchema-instance" xsi:noNamespaceSchemaLocation="http://sumo.dlr.de/xsd/net_file.xsd">

    <location netOffset="615.28,615.37" convBoundary="0.00,0.00,1254.76,1256.05" origBoundary="-615.28,-615.37,639.48,640.67" projParameter="!"/>

    <edge id=":A_0" function="internal">
        <lane id=":A_0_0" index="0" speed="7.33" length="11.73" shape="610.48,949.31,-0.78 609.93,946.86,-0.78 608.28,945.11,-0.78 605.53,944.06,-0.78 601.68,943.71,-0.78"/>
    </edge>
    <edge id=":A_1" function="internal">
        <lane id=":A_1_0" index="0" speed="35.00" length="27.43" shape="610.48,949.31,-0.78 609.98,942.77,-0.77 608.88,937.10,-0.77 607.78,930.73,-0.76 607.28,922.11,-0.75"/>
        <lane id=":A_1_1" index="1" speed="35.00" length="27.43" shape="613.68,949.31,-0.78 613.18,942.77,-0.77 612.08,937.10,-0.77 610.98,930.73,-0.76 610.48,922.11,-0.75"/>
    </edge>
    <edge id=":A_3" function="internal">
        <lane id=":A_3_0" index="0" speed="10.36" length="10.84" shape="613.68,949.31,-0.78 614.63,942.66,-0.78 616.76,939.12,-0.78"/>
    </edge>
    <edge id=":A_16" function="internal">
        <lane id=":A_16_0" index="0" speed="10.36" length="13.67" shape="616.76,939.12,-0.78 617.48,937.91,-0.78 622.23,935.06,-0.78 628.88,934.11,-0.78"/>
    </edge>
    <edge id=":A_4" function="internal">
        <lane id=":A_4_0" index="0" speed="7.33" length="11.73" shape="628.88,940.51,-0.78 626.43,941.06,-0.78 624.68,942.71,-0.78 623.63,945.46,-0.78 623.28,949.31,-0.78"/>
    </edge>
    <edge id=":A_5" function="internal">
        <lane id=":A_5_0" index="0" speed="35.00" length="27.43" shape="628.88,940.51,-0.78 622.34,941.01,-0.78 616.67,942.11,-0.78 610.30,943.21,-0.78 601.68,943.71,-0.78"/>
        <lane id=":A_5_1" index="1" speed="35.00" length="27.43" shape="628.88,937.31,-0.78 622.34,937.81,-0.78 616.67,938.91,-0.78 610.30,940.01,-0.78 601.68,940.51,-0.78"/>
    </edge>
    <edge id=":A_7" function="internal">
        <lane id=":A_7_0" index="0" speed="10.36" length="10.84" shape="628.88,937.31,-0.78 622.23,936.36,-0.77 618.70,934.24,-0.77"/>
    </edge>
    <edge id=":A_17" function="internal">
        <lane id=":A_17_0" index="0" speed="10.36" length="13.67" shape="618.70,934.24,-0.77 617.48,933.51,-0.76 614.63,928.76,-0.76 613.68,922.11,-0.75"/>
    </edge>
    <edge id=":A_8" function="internal">
        <lane id=":A_8_0" index="0" speed="7.33" length="11.73" shape="620.08,922.11,-0.75 620.63,924.56,-0.76 622.28,926.31,-0.76 625.03,927.36,-0.77 628.88,927.71,-0.78"/>
    </edge>
    <edge id=":A_9" function="internal">
        <lane id=":A_9_0" index="0" speed="35.00" length="27.43" shape="620.08,922.11,-0.75 620.58,928.65,-0.76 621.68,934.33,-0.76 622.78,940.69,-0.77 623.28,949.31,-0.78"/>
        <lane id=":A_9_1" index="1" speed="35.00" length="27.43" shape="616.88,922.11,-0.75 617.38,928.65,-0.76 618.48,934.33,-0.76 619.58,940.69,-0.77 620.08,949.31,-0.78"/>
    </edge>
    <edge id=":A_11" function="internal">
        <lane id=":A_11_0" index="0" speed="10.36" length="10.84" shape="616.88,922.11,-0.75 615.93,928.76,-0.76 613.81,932.30,-0.76"/>
    </edge>
    <edge id=":A_18" function="internal">
        <lane id=":A_18_0" index="0" speed="10.36" length="13.67" shape="613.81,932.30,-0.76 613.08,933.51,-0.76 608.33,936.36,-0.77 601.68,937.31,-0.78"/>
    </edge>
    <edge id=":A_12" function="internal">
        <lane id=":A_12_0" index="0" speed="7.33" length="11.73" shape="601.68,930.91,-0.78 604.13,930.36,-0.77 605.88,928.71,-0.77 606.93,925.96,-0.76 607.28,922.11,-0.75"/>
    </edge>
    <edge id=":A_13" function="internal">
        <lane id=":A_13_0" index="0" speed="35.00" length="27.43" shape="601.68,930.91,-0.78 608.23,930.41,-0.78 613.90,929.31,-0.78 620.26,928.21,-0.78 628.88,927.71,-0.78"/>
        <lane id=":A_13_1" index="1" speed="35.00" length="27.43" shape="601.68,934.11,-0.78 608.23,933.61,-0.78 613.90,932.51,-0.78 620.26,931.41,-0.78 628.88,930.91,-0.78"/>
    </edge>
    <edge id=":A_15" function="internal">
        <lane id=":A_15_0" index="0" speed="10.36" length="10.84" shape="601.68,934.11,-0.78 608.33,935.06,-0.78 611.87,937.18,-0.78"/>
    </edge>
    <edge id=":A_19" function="internal">
        <lane id=":A_19_0" index="0" speed="10.36" length="13.67" shape="611.87,937.18,-0.78 613.08,937.91,-0.78 615.93,942.66,-0.78 616.88,949.31,-0.78"/>
    </edge>
    <edge id=":AA_0" function="internal">
        <lane id=":AA_0_0" index="0" speed="3.65" length="4.67" shape="294.95,937.31,-0.78 293.75,936.51,-0.78 293.35,935.71,-0.78 293.75,934.91,-0.78 294.95,934.11,-0.78"/>
    </edge>
    <edge id=":AB_0" function="internal">
        <lane id=":AB_0_0" index="0" speed="3.65" length="4.67" shape="616.88,1256.05,-0.78 616.08,1257.25,-0.78 615.28,1257.65,-0.78 614.48,1257.25,-0.78 613.68,1256.05,-0.78"/>
    </edge>
    <edge id=":AC_0" function="internal">
        <lane id=":AC_0_0" index="0" speed="3.65" length="4.67" shape="935.62,934.11,-0.78 936.82,934.91,-0.78 937.22,935.71,-0.78 936.82,936.51,-0.78 935.62,937.31,-0.78"/>
    </edge>
    <edge id=":B_0" function="internal">
        <lane id=":B_0_0" index="0" speed="7.33" length="11.73" shape="927.02,632.17,-0.10 926.47,629.72,-0.10 924.82,627.97,-0.10 922.07,626.92,-0.09 918.22,626.57,-0.09"/>
    </edge>
    <edge id=":B_1" function="internal">
        <lane id=":B_1_0" index="0" speed="30.00" length="33.80" shape="927.02,632.17,-0.10 926.52,622.97,-0.10 925.42,616.08,-0.10 924.32,608.83,-0.10 923.82,598.57,-0.10"/>
        <lane id=":B_1_1" index="1" speed="30.00" length="33.80" shape="930.22,632.17,-0.10 929.72,622.97,-0.10 928.62,616.08,-0.10 927.52,608.83,-0.10 927.02,598.57,-0.10"/>
        <lane id=":B_1_2" index="2" speed="30.00" length="33.80" shape="933.42,632.17,-0.10 932.92,622.97,-0.10 931.82,616.08,-0.10 930.72,608.83,-0.10 930.22,598.57,-0.10"/>
    </edge>
    <edge id=":B_4" function="internal">
        <lane id=":B_4_0" index="0" speed="11.36" length="12.06" shape="933.42,632.17,-0.10 934.57,624.12,-0.10 936.59,620.76,-0.10"/>
    </edge>
    <edge id=":B_20" function="internal">
        <lane id=":B_20_0" index="0" speed="11.36" length="17.62" shape="936.59,620.76,-0.10 938.02,618.37,-0.10 943.77,614.92,-0.10 951.82,613.77,-0.10"/>
    </edge>
    <edge id=":B_5" function="internal">
        <lane id=":B_5_0" index="0" speed="7.33" length="11.73" shape="951.82,623.37,-0.10 949.37,623.92,-0.10 947.62,625.57,-0.10 946.57,628.32,-0.10 946.22,632.17,-0.10"/>
    </edge>
    <edge id=":B_6" function="internal">
        <lane id=":B_6_0" index="0" speed="30.00" length="33.80" shape="951.82,623.37,-0.10 942.62,623.87,-0.10 935.73,624.97,-0.10 928.48,626.07,-0.09 918.22,626.57,-0.09"/>
        <lane id=":B_6_1" index="1" speed="30.00" length="33.80" shape="951.82,620.17,-0.10 942.62,620.67,-0.10 935.73,621.77,-0.10 928.48,622.87,-0.09 918.22,623.37,-0.09"/>
        <lane id=":B_6_2" index="2" speed="30.00" length="33.80" shape="951.82,616.97,-0.10 942.62,617.47,-0.10 935.73,618.57,-0.10 928.48,619.67,-0.09 918.22,620.17,-0.09"/>
    </edge>
    <edge id=":B_9" function="internal">
        <lane id=":B_9_0" index="0" speed="11.36" length="12.06" shape="951.82,616.97,-0.10 943.77,615.82,-0.10 940.41,613.80,-0.10"/>
    </edge>
    <edge id=":B_21" function="internal">
        <lane id=":B_21_0" index="0" speed="11.36" length="17.62" shape="940.41,613.80,-0.10 938.02,612.37,-0.10 934.57,606.62,-0.10 933.42,598.57,-0.10"/>
    </edge>
    <edge id=":B_10" function="internal">
        <lane id=":B_10_0" index="0" speed="7.33" length="11.73" shape="943.02,598.57,-0.10 943.57,601.02,-0.10 945.22,602.77,-0.10 947.97,603.82,-0.10 951.82,604.17,-0.10"/>
    </edge>
    <edge id=":B_11" function="internal">
        <lane id=":B_11_0" index="0" speed="30.00" length="33.80" shape="943.02,598.57,-0.10 943.52,607.78,-0.10 944.62,614.67,-0.10 945.72,621.91,-0.10 946.22,632.17,-0.10"/>
        <lane id=":B_11_1" index="1" speed="30.00" length="33.80" shape="939.82,598.57,-0.10 940.32,607.78,-0.10 941.42,614.67,-0.10 942.52,621.91,-0.10 943.02,632.17,-0.10"/>
        <lane id=":B_11_2" index="2" speed="30.00" length="33.80" shape="936.62,598.57,-0.10 937.12,607.78,-0.10 938.22,614.67,-0.10 939.32,621.91,-0.10 939.82,632.17,-0.10"/>
    </edge>
    <edge id=":B_14" function="internal">
        <lane id=":B_14_0" index="0" speed="11.36" length="12.06" shape="936.62,598.57,-0.10 935.47,606.62,-0.10 933.45,609.99,-0.10"/>
    </edge>
    <edge id=":B_22" function="internal">
        <lane id=":B_22_0" index="0" speed="11.36" length="17.62" shape="933.45,609.99,-0.10 932.02,612.37,-0.09 926.27,615.82,-0.09 918.22,616.97,-0.09"/>
    </edge>
    <edge id=":B_15" function="internal">
        <lane id=":B_15_0" index="0" speed="7.33" length="11.73" shape="918.22,607.37,-0.09 920.67,606.82,-0.09 922.42,605.17,-0.09 923.47,602.42,-0.10 923.82,598.57,-0.10"/>
    </edge>
    <edge id=":B_16" function="internal">
        <lane id=":B_16_0" index="0" speed="30.00" length="33.80" shape="918.22,607.37,-0.09 927.43,606.87,-0.09 934.32,605.77,-0.09 941.56,604.67,-0.10 951.82,604.17,-0.10"/>
        <lane id=":B_16_1" index="1" speed="30.00" length="33.80" shape="918.22,610.57,-0.09 927.43,610.07,-0.09 934.32,608.97,-0.09 941.56,607.87,-0.10 951.82,607.37,-0.10"/>
        <lane id=":B_16_2" index="2" speed="30.00" length="33.80" shape="918.22,613.77,-0.09 927.43,613.27,-0.09 934.32,612.17,-0.09 941.56,611.07,-0.10 951.82,610.57,-0.10"/>
    </edge>
    <edge id=":B_19" function="internal">
        <lane id=":B_19_0" index="0" speed="11.36" length="12.06" shape="918.22,613.77,-0.09 926.27,614.92,-0.09 929.64,616.94,-0.09"/>
    </edge>
    <edge id=":B_23" function="internal">
        <lane id=":B_23_0" index="0" speed="11.36" length="17.62" shape="929.64,616.94,-0.09 932.02,618.37,-0.09 935.47,624.12,-0.10 936.62,632.17,-0.10"/>
    </edge>
    <edge id=":BA_0" function="internal">
        <lane id=":BA_0_0" index="0" speed="3.65" length="4.67" shape="936.62,935.11,-0.10 935.82,936.31,-0.10 935.02,936.71,-0.10 934.22,936.31,-0.10 933.42,935.11,-0.10"/>
    </edge>
    <edge id=":BB_0" function="internal">
        <lane id=":BB_0_0" index="0" speed="3.65" length="4.67" shape="1254.76,613.77,-0.10 1255.96,614.57,-0.10 1256.36,615.37,-0.10 1255.96,616.17,-0.10 1254.76,616.97,-0.10"/>
    </edge>
    <edge id=":BC_0" function="internal">
        <lane id=":BC_0_0" index="0" speed="3.65" length="4.67" shape="933.42,295.63,-0.10 934.22,294.43,-0.10 935.02,294.03,-0.10 935.82,294.43,-0.10 936.62,295.63,-0.10"/>
    </edge>
    <edge id=":C_0" function="internal">
        <lane id=":C_0_0" index="0" speed="6.51" length="9.03" shape="610.48,318.09,-1.00 610.13,315.64,-1.01 609.08,313.89,-1.01 607.33,312.84,-1.02 604.88,312.49,-1.03"/>
    </edge>
    <edge id=":C_1" function="internal">
        <lane id=":C_1_0" index="0" speed="35.00" length="20.80" shape="610.48,318.09,-1.00 610.48,297.29,-1.03"/>
        <lane id=":C_1_1" index="1" speed="35.00" length="20.80" shape="613.68,318.09,-1.00 613.68,297.29,-1.03"/>
    </edge>
    <edge id=":C_3" function="internal">
        <lane id=":C_3_0" index="0" speed="9.26" length="5.01" shape="613.68,318.09,-1.00 614.39,313.12,-1.01"/>
    </edge>
    <edge id=":C_16" function="internal">
        <lane id=":C_16_0" index="0" speed="9.26" length="14.34" shape="614.39,313.12,-1.01 614.43,312.84,-1.01 616.68,309.09,-1.01 620.43,306.84,-1.02 625.68,306.09,-1.03"/>
    </edge>
    <edge id=":C_4" function="internal">
        <lane id=":C_4_0" index="0" speed="6.51" length="9.03" shape="625.68,312.49,-1.03 623.23,312.84,-1.02 621.48,313.89,-1.01 620.43,315.64,-1.01 620.08,318.09,-1.00"/>
    </edge>
    <edge id=":C_5" function="internal">
        <lane id=":C_5_0" index="0" speed="35.00" length="20.80" shape="625.68,312.49,-1.03 604.88,312.49,-1.03"/>
        <lane id=":C_5_1" index="1" speed="35.00" length="20.80" shape="625.68,309.29,-1.03 604.88,309.29,-1.03"/>
    </edge>
    <edge id=":C_7" function="internal">
        <lane id=":C_7_0" index="0" speed="9.26" length="5.01" shape="625.68,309.29,-1.03 620.72,308.58,-1.03"/>
    </edge>
    <edge id=":C_17" function="internal">
        <lane id=":C_17_0" index="0" speed="9.26" length="14.34" shape="620.72,308.58,-1.03 620.43,308.54,-1.03 616.68,306.29,-1.03 614.43,302.54,-1.03 613.68,297.29,-1.03"/>
    </edge>
    <edge id=":C_8" function="internal">
        <lane id=":C_8_0" index="0" speed="6.51" length="9.03" shape="620.08,297.29,-1.03 620.43,299.74,-1.03 621.48,301.49,-1.03 623.23,302.54,-1.03 625.68,302.89,-1.03"/>
    </edge>
    <edge id=":C_9" function="internal">
        <lane id=":C_9_0" index="0" speed="35.00" length="20.80" shape="620.08,297.29,-1.03 620.08,318.09,-1.00"/>
        <lane id=":C_9_1" index="1" speed="35.00" length="20.80" shape="616.88,297.29,-1.03 616.88,318.09,-1.00"/>
    </edge>
    <edge id=":C_11" function="internal">
        <lane id=":C_11_0" index="0" speed="9.26" length="5.01" shape="616.88,297.29,-1.03 616.17,302.25,-1.03"/>
    </edge>
    <edge id=":C_18" function="internal">
        <lane id=":C_18_0" index="0" speed="9.26" length="14.34" shape="616.17,302.25,-1.03 616.13,302.54,-1.03 613.88,306.29,-1.03 610.13,308.54,-1.03 604.88,309.29,-1.03"/>
    </edge>
    <edge id=":C_12" function="internal">
        <lane id=":C_12_0" index="0" speed="6.51" length="9.03" shape="604.88,302.89,-1.03 607.33,302.54,-1.03 609.08,301.49,-1.03 610.13,299.74,-1.03 610.48,297.29,-1.03"/>
    </edge>
    <edge id=":C_13" function="internal">
        <lane id=":C_13_0" index="0" speed="35.00" length="20.80" shape="604.88,302.89,-1.03 625.68,302.89,-1.03"/>
        <lane id=":C_13_1" index="1" speed="35.00" length="20.80" shape="604.88,306.09,-1.03 625.68,306.09,-1.03"/>
    </edge>
    <edge id=":C_15" function="internal">
        <lane id=":C_15_0" index="0" speed="9.26" length="5.01" shape="604.88,306.09,-1.03 609.85,306.80,-1.02"/>
    </edge>
    <edge id=":C_19" function="internal">
        <lane id=":C_19_0" index="0" speed="9.26" length="14.34" shape="609.85,306.80,-1.02 610.13,306.84,-1.02 613.88,309.09,-1.01 616.13,312.84,-1.01 616.88,318.09,-1.00"/>
    </edge>
    <edge id=":CA_0" function="internal">
        <lane id=":CA_0_0" index="0" speed="3.65" length="4.67" shape="922.97,306.09,-1.03 924.17,306.89,-1.03 924.57,307.69,-1.03 924.17,308.49,-1.03 922.97,309.29,-1.03"/>
    </edge>
    <edge id=":CB_0" function="internal">
        <lane id=":CB_0_0" index="0" speed="3.65" length="4.67" shape="613.68,0.00,-1.03 614.48,-1.20,-1.03 615.28,-1.60,-1.03 616.08,-1.20,-1.03 616.88,0.00,-1.03"/>
    </edge>
    <edge id=":CC_0" function="internal">
        <lane id=":CC_0_0" index="0" speed="3.65" length="4.67" shape="307.60,309.29,-1.03 306.40,308.49,-1.03 306.00,307.69,-1.03 306.40,306.89,-1.03 307.60,306.09,-1.03"/>
    </edge>
    <edge id=":C_intern_0" function="internal">
        <lane id=":C_intern_0_0" index="0" speed="35.00" length="8.54" shape="620.08,561.37,-0.18 620.58,563.84,-0.17 621.68,565.37,-0.17 622.78,566.91,-0.16 623.28,569.37,-0.15"/>
        <lane id=":C_intern_0_1" index="1" speed="35.00" length="8.54" shape="616.88,561.37,-0.18 617.38,563.84,-0.17 618.48,565.37,-0.17 619.58,566.91,-0.16 620.08,569.37,-0.15"/>
        <lane id=":C_intern_0_2" index="2" speed="35.00" length="8.54" shape="616.88,561.37,-0.18 616.88,569.37,-0.15"/>
    </edge>
    <edge id=":D_0" function="internal">
        <lane id=":D_0_0" index="0" speed="6.51" length="9.03" shape="299.64,628.97,0.47 299.29,626.52,0.47 298.24,624.77,0.47 296.49,623.72,0.47 294.04,623.37,0.47"/>
    </edge>
    <edge id=":D_1" function="internal">
        <lane id=":D_1_0" index="0" speed="30.00" length="27.20" shape="299.64,628.97,0.47 299.64,601.77,0.47"/>
        <lane id=":D_1_1" index="1" speed="30.00" length="27.20" shape="302.84,628.97,0.47 302.84,601.77,0.47"/>
        <lane id=":D_1_2" index="2" speed="30.00" length="27.20" shape="306.04,628.97,0.47 306.04,601.77,0.47"/>
    </edge>
    <edge id=":D_4" function="internal">
        <lane id=":D_4_0" index="0" speed="10.36" length="5.01" shape="306.04,628.97,0.47 306.75,624.01,0.46"/>
    </edge>
    <edge id=":D_20" function="internal">
        <lane id=":D_20_0" index="0" speed="10.36" length="19.50" shape="306.75,624.01,0.46 306.99,622.32,0.46 309.84,617.57,0.46 314.59,614.72,0.45 321.24,613.77,0.45"/>
    </edge>
    <edge id=":D_5" function="internal">
        <lane id=":D_5_0" index="0" speed="6.51" length="9.03" shape="321.24,623.37,0.45 318.79,623.72,0.45 317.04,624.77,0.46 315.99,626.52,0.46 315.64,628.97,0.47"/>
    </edge>
    <edge id=":D_6" function="internal">
        <lane id=":D_6_0" index="0" speed="30.00" length="27.20" shape="321.24,623.37,0.45 294.04,623.37,0.47"/>
        <lane id=":D_6_1" index="1" speed="30.00" length="27.20" shape="321.24,620.17,0.45 294.04,620.17,0.47"/>
        <lane id=":D_6_2" index="2" speed="30.00" length="27.20" shape="321.24,616.97,0.45 294.04,616.97,0.47"/>
    </edge>
    <edge id=":D_9" function="internal">
        <lane id=":D_9_0" index="0" speed="10.36" length="5.01" shape="321.24,616.97,0.45 316.28,616.27,0.45"/>
    </edge>
    <edge id=":D_21" function="internal">
        <lane id=":D_21_0" index="0" speed="10.36" length="19.50" shape="316.28,616.27,0.45 314.59,616.02,0.45 309.84,613.17,0.46 306.99,608.42,0.46 306.04,601.77,0.47"/>
    </edge>
    <edge id=":D_10" function="internal">
        <lane id=":D_10_0" index="0" speed="6.51" length="9.03" shape="315.64,601.77,0.47 315.99,604.22,0.46 317.04,605.97,0.46 318.79,607.02,0.45 321.24,607.37,0.45"/>
    </edge>
    <edge id=":D_11" function="internal">
        <lane id=":D_11_0" index="0" speed="30.00" length="27.20" shape="315.64,601.77,0.47 315.64,628.97,0.47"/>
        <lane id=":D_11_1" index="1" speed="30.00" length="27.20" shape="312.44,601.77,0.47 312.44,628.97,0.47"/>
        <lane id=":D_11_2" index="2" speed="30.00" length="27.20" shape="309.24,601.77,0.47 309.24,628.97,0.47"/>
    </edge>
    <edge id=":D_14" function="internal">
        <lane id=":D_14_0" index="0" speed="10.36" length="5.01" shape="309.24,601.77,0.47 308.53,606.74,0.47"/>
    </edge>
    <edge id=":D_22" function="internal">
        <lane id=":D_22_0" index="0" speed="10.36" length="19.50" shape="308.53,606.74,0.47 308.29,608.42,0.47 305.44,613.17,0.47 300.69,616.02,0.47 294.04,616.97,0.47"/>
    </edge>
    <edge id=":D_15" function="internal">
        <lane id=":D_15_0" index="0" speed="6.51" length="9.03" shape="294.04,607.37,0.47 296.49,607.02,0.47 298.24,605.97,0.47 299.29,604.22,0.47 299.64,601.77,0.47"/>
    </edge>
    <edge id=":D_16" function="internal">
        <lane id=":D_16_0" index="0" speed="30.00" length="27.20" shape="294.04,607.37,0.47 321.24,607.37,0.45"/>
        <lane id=":D_16_1" index="1" speed="30.00" length="27.20" shape="294.04,610.57,0.47 321.24,610.57,0.45"/>
        <lane id=":D_16_2" index="2" speed="30.00" length="27.20" shape="294.04,613.77,0.47 321.24,613.77,0.45"/>
    </edge>
    <edge id=":D_19" function="internal">
        <lane id=":D_19_0" index="0" speed="10.36" length="5.01" shape="294.04,613.77,0.47 299.01,614.48,0.47"/>
    </edge>
    <edge id=":D_23" function="internal">
        <lane id=":D_23_0" index="0" speed="10.36" length="19.50" shape="299.01,614.48,0.47 300.69,614.72,0.47 305.44,617.57,0.47 308.29,622.32,0.47 309.24,628.97,0.47"/>
    </edge>
    <edge id=":DA_0" function="internal">
        <lane id=":DA_0_0" index="0" speed="3.65" length="4.67" shape="306.04,307.73,0.47 306.84,306.53,0.47 307.64,306.13,0.47 308.44,306.53,0.47 309.24,307.73,0.47"/>
    </edge>
    <edge id=":DB_0" function="internal">
        <lane id=":DB_0_0" index="0" speed="3.65" length="4.67" shape="-0.00,616.97,0.47 -1.20,616.17,0.47 -1.60,615.37,0.47 -1.20,614.57,0.47 -0.00,613.77,0.47"/>
    </edge>
    <edge id=":DC_0" function="internal">
        <lane id=":DC_0_0" index="0" speed="3.65" length="4.67" shape="309.24,923.02,0.47 308.44,924.22,0.47 307.64,924.62,0.47 306.84,924.22,0.47 306.04,923.02,0.47"/>
    </edge>
    <edge id=":TL_0" function="internal">
        <lane id=":TL_0_0" index="0" speed="7.33" length="11.73" shape="607.28,632.17,-0.04 606.93,628.32,-0.02 605.88,625.57,-0.01 604.13,623.92,0.01 601.68,623.37,0.02"/>
    </edge>
    <edge id=":TL_1" function="internal">
        <lane id=":TL_1_0" index="0" speed="35.00" length="30.61" shape="607.28,632.17,-0.04 607.78,622.50,-0.04 608.88,615.10,-0.04 609.98,608.63,-0.04 610.48,601.77,-0.05"/>
        <lane id=":TL_1_1" index="1" speed="35.00" length="30.61" shape="610.48,632.17,-0.04 610.98,622.50,-0.04 612.08,615.10,-0.04 613.18,608.63,-0.04 613.68,601.77,-0.05"/>
    </edge>
    <edge id=":TL_3" function="internal">
        <lane id=":TL_3_0" index="0" speed="10.88" length="9.36" shape="613.68,632.17,-0.04 614.63,624.12,-0.03 615.19,623.01,-0.03"/>
    </edge>
    <edge id=":TL_17" function="internal">
        <lane id=":TL_17_0" index="0" speed="10.88" length="17.79" shape="615.19,623.01,-0.03 617.48,618.37,-0.02 622.23,614.92,-0.01 628.88,613.77,-0.00"/>
    </edge>
    <edge id=":TL_4" function="internal">
        <lane id=":TL_4_0" index="0" speed="7.33" length="11.73" shape="628.88,626.57,-0.00 625.03,626.92,-0.02 622.28,627.97,-0.03 620.63,629.72,-0.03 620.08,632.17,-0.04"/>
    </edge>
    <edge id=":TL_5" function="internal">
        <lane id=":TL_5_0" index="0" speed="30.00" length="27.20" shape="628.88,623.37,-0.00 601.68,623.37,0.02"/>
        <lane id=":TL_5_1" index="1" speed="30.00" length="27.20" shape="628.88,620.17,-0.00 601.68,620.17,0.02"/>
    </edge>
    <edge id=":TL_7" function="internal">
        <lane id=":TL_7_0" index="0" speed="10.36" length="5.01" shape="628.88,616.97,-0.00 623.92,616.27,-0.01"/>
    </edge>
    <edge id=":TL_18" function="internal">
        <lane id=":TL_18_0" index="0" speed="10.36" length="19.50" shape="623.92,616.27,-0.01 622.23,616.02,-0.02 617.48,613.17,-0.02 614.63,608.42,-0.03 613.68,601.77,-0.05"/>
    </edge>
    <edge id=":TL_8" function="internal">
        <lane id=":TL_8_0" index="0" speed="6.51" length="9.03" shape="623.28,601.77,-0.05 623.63,604.22,-0.03 624.68,605.97,-0.02 626.43,607.02,-0.02 628.88,607.37,-0.00"/>
    </edge>
    <edge id=":TL_9" function="internal">
        <lane id=":TL_9_0" index="0" speed="35.00" length="30.61" shape="623.28,601.77,-0.05 622.78,611.45,-0.04 621.68,618.85,-0.04 620.58,625.31,-0.04 620.08,632.17,-0.04"/>
        <lane id=":TL_9_1" index="1" speed="35.00" length="30.61" shape="620.08,601.77,-0.05 619.58,611.45,-0.04 618.48,618.85,-0.04 617.38,625.31,-0.04 616.88,632.17,-0.04"/>
    </edge>
    <edge id=":TL_11" function="internal">
        <lane id=":TL_11_0" index="0" speed="10.36" length="7.07" shape="616.88,601.77,-0.05 615.93,608.42,-0.03 615.75,608.73,-0.03"/>
    </edge>
    <edge id=":TL_19" function="internal">
        <lane id=":TL_19_0" index="0" speed="10.36" length="17.44" shape="615.75,608.73,-0.03 613.08,613.17,-0.01 608.33,616.02,0.00 601.68,616.97,0.02"/>
    </edge>
    <edge id=":TL_12" function="internal">
        <lane id=":TL_12_0" index="0" speed="7.33" length="11.73" shape="601.68,607.37,0.02 605.53,607.02,-0.00 608.28,605.97,-0.02 609.93,604.22,-0.03 610.48,601.77,-0.05"/>
    </edge>
    <edge id=":TL_13" function="internal">
        <lane id=":TL_13_0" index="0" speed="30.00" length="27.20" shape="601.68,607.37,0.02 628.88,607.37,-0.00"/>
        <lane id=":TL_13_1" index="1" speed="30.00" length="27.20" shape="601.68,610.57,0.02 628.88,610.57,-0.00"/>
        <lane id=":TL_13_2" index="2" speed="30.00" length="27.20" shape="601.68,613.77,0.02 628.88,613.77,-0.00"/>
    </edge>
    <edge id=":TL_16" function="internal">
        <lane id=":TL_16_0" index="0" speed="10.88" length="11.30" shape="601.68,613.77,0.02 608.33,614.92,0.01 612.02,617.60,-0.00"/>
    </edge>
    <edge id=":TL_20" function="internal">
        <lane id=":TL_20_0" index="0" speed="10.88" length="15.84" shape="612.02,617.60,-0.00 613.08,618.37,-0.01 615.93,624.12,-0.02 616.88,632.17,-0.04"/>
    </edge>

    <edge id="A2AA" from="A" to="AA" priority="-1">
        <lane id="A2AA_0" index="0" speed="35.00" length="306.74" shape="601.68,943.71,-0.78 294.95,943.71,-0.78"/>
        <lane id="A2AA_1" index="1" speed="35.00" length="306.74" shape="601.68,940.51,-0.78 294.95,940.51,-0.78"/>
        <lane id="A2AA_2" index="2" speed="35.00" length="306.74" shape="601.68,937.31,-0.78 294.95,937.31,-0.78"/>
    </edge>
    <edge id="A2AB" from="A" to="AB" priority="-1">
        <lane id="A2AB_0" index="0" speed="35.00" length="306.74" shape="623.28,949.31,-0.78 623.28,1256.05,-0.78"/>
        <lane id="A2AB_1" index="1" speed="35.00" length="306.74" shape="620.08,949.31,-0.78 620.08,1256.05,-0.78"/>
        <lane id="A2AB_2" index="2" speed="35.00" length="306.74" shape="616.88,949.31,-0.78 616.88,1256.05,-0.78"/>
    </edge>
    <edge id="A2AC" from="A" to="AC" priority="-1">
        <lane id="A2AC_0" index="0" speed="35.00" length="306.74" shape="628.88,927.71,-0.78 935.62,927.71,-0.78"/>
        <lane id="A2AC_1" index="1" speed="35.00" length="306.74" shape="628.88,930.91,-0.78 935.62,930.91,-0.78"/>
        <lane id="A2AC_2" index="2" speed="35.00" length="306.74" shape="628.88,934.11,-0.78 935.62,934.11,-0.78"/>
    </edge>
    <edge id="A2TL" from="A" to="TL" priority="-1">
        <lane id="A2TL_0" index="0" speed="35.00" length="289.94" shape="607.28,922.11,-0.75 607.28,632.17,-0.04"/>
        <lane id="A2TL_1" index="1" speed="35.00" length="289.94" shape="610.48,922.11,-0.75 610.48,632.17,-0.04"/>
        <lane id="A2TL_2" index="2" speed="35.00" length="289.94" shape="613.68,922.11,-0.75 613.68,632.17,-0.04"/>
    </edge>
    <edge id="AA2A" from="AA" to="A" priority="-1">
        <lane id="AA2A_0" index="0" speed="35.00" length="306.74" shape="294.95,930.91,-0.78 601.68,930.91,-0.78"/>
        <lane id="AA2A_1" index="1" speed="35.00" length="306.74" shape="294.95,934.11,-0.78 601.68,934.11,-0.78"/>
    </edge>
    <edge id="AB2A" from="AB" to="A" priority="-1">
        <lane id="AB2A_0" index="0" speed="35.00" length="306.74" shape="610.48,1256.05,-0.78 610.48,949.31,-0.78"/>
        <lane id="AB2A_1" index="1" speed="35.00" length="306.74" shape="613.68,1256.05,-0.78 613.68,949.31,-0.78"/>
    </edge>
    <edge id="AC2A" from="AC" to="A" priority="-1">
        <lane id="AC2A_0" index="0" speed="35.00" length="306.74" shape="935.62,940.51,-0.78 628.88,940.51,-0.78"/>
        <lane id="AC2A_1" index="1" speed="35.00" length="306.74" shape="935.62,937.31,-0.78 628.88,937.31,-0.78"/>
    </edge>
    <edge id="B2BA" from="B" to="BA" priority="-1">
        <lane id="B2BA_0" index="0" speed="30.00" length="302.94" shape="946.22,632.17,-0.10 946.22,935.11,-0.10"/>
        <lane id="B2BA_1" index="1" speed="30.00" length="302.94" shape="943.02,632.17,-0.10 943.02,935.11,-0.10"/>
        <lane id="B2BA_2" index="2" speed="30.00" length="302.94" shape="939.82,632.17,-0.10 939.82,935.11,-0.10"/>
        <lane id="B2BA_3" index="3" speed="30.00" length="302.94" shape="936.62,632.17,-0.10 936.62,935.11,-0.10"/>
    </edge>
    <edge id="B2BB" from="B" to="BB" priority="-1">
        <lane id="B2BB_0" index="0" speed="30.00" length="302.94" shape="951.82,604.17,-0.10 1254.76,604.17,-0.10"/>
        <lane id="B2BB_1" index="1" speed="30.00" length="302.94" shape="951.82,607.37,-0.10 1254.76,607.37,-0.10"/>
        <lane id="B2BB_2" index="2" speed="30.00" length="302.94" shape="951.82,610.57,-0.10 1254.76,610.57,-0.10"/>
        <lane id="B2BB_3" index="3" speed="30.00" length="302.94" shape="951.82,613.77,-0.10 1254.76,613.77,-0.10"/>
    </edge>
    <edge id="B2BC" from="B" to="BC" priority="-1">
        <lane id="B2BC_0" index="0" speed="30.00" length="302.94" shape="923.82,598.57,-0.10 923.82,295.63,-0.10"/>
        <lane id="B2BC_1" index="1" speed="30.00" length="302.94" shape="927.02,598.57,-0.10 927.02,295.63,-0.10"/>
        <lane id="B2BC_2" index="2" speed="30.00" length="302.94" shape="930.22,598.57,-0.10 930.22,295.63,-0.10"/>
        <lane id="B2BC_3" index="3" speed="30.00" length="302.94" shape="933.42,598.57,-0.10 933.42,295.63,-0.10"/>
    </edge>
    <edge id="B2TL" from="B" to="TL" priority="-1">
        <lane id="B2TL_0" index="0" speed="30.00" length="289.34" shape="918.22,626.57,-0.09 628.88,626.57,-0.00"/>
        <lane id="B2TL_1" index="1" speed="30.00" length="289.34" shape="918.22,623.37,-0.09 628.88,623.37,-0.00"/>
        <lane id="B2TL_2" index="2" speed="30.00" length="289.34" shape="918.22,620.17,-0.09 628.88,620.17,-0.00"/>
        <lane id="B2TL_3" index="3" speed="30.00" length="289.34" shape="918.22,616.97,-0.09 628.88,616.97,-0.00"/>
    </edge>
    <edge id="BA2B" from="BA" to="B" priority="-1">
        <lane id="BA2B_0" index="0" speed="30.00" length="302.94" shape="927.02,935.11,-0.10 927.02,632.17,-0.10"/>
        <lane id="BA2B_1" index="1" speed="30.00" length="302.94" shape="930.22,935.11,-0.10 930.22,632.17,-0.10"/>