<?xml version="1.0" encoding="UTF-8"?>

<!-- generated on 2022-10-11 17:10:51 by Eclipse SUMO netconvert Version 1.14.1
<configuration xmlns:xsi="http://www.w3.org/2001/XMLSchema-instance" xsi:noNamespaceSchemaLocation="http://sumo.dlr.de/xsd/netconvertConfiguration.xsd">

    <input>
        <node-files value="../data/salt-lake-city/nodes.nod.xml"/>
        <edge-files value="../data/salt-lake-city/edges.edg.xml"/>
        <connection-files value="../data/salt-lake-city/connections.con.xml"/>
    </input>

    <output>
        <output-file value="../data/salt-lake-city/sumo/net/28.net.xml"/>
    </output>

    <tls_building>
        <tls.minor-left.max-speed value="1"/>
    </tls_building>

    <report>
        <verbose value="true"/>
    </report>

</configuration>
-->

<net version="1.9" junctionCornerDetail="5" limitTurnSpeed="5.50" xmlns:xsi="http://www.w3.org/2001/XMLSchema-instance" xsi:noNamespaceSchemaLocation="http://sumo.dlr.de/xsd/net_file.xsd">

    <location netOffset="1118.33,559.16" convBoundary="0.00,0.00,1924.81,1424.55" origBoundary="-1118.33,-559.16,806.48,865.38" projParameter="!"/>

    <edge id=":A_0" function="internal">
        <lane id=":A_0_0" index="0" speed="6.51" length="9.03" shape="1113.53,1002.26,-0.92 1113.18,999.81,-0.92 1112.13,998.06,-0.92 1110.38,997.01,-0.92 1107.93,996.66,-0.92"/>
    </edge>
    <edge id=":A_1" function="internal">
        <lane id=":A_1_0" index="0" speed="35.00" length="20.80" shape="1113.53,1002.26,-0.92 1113.53,981.46,-0.90"/>
        <lane id=":A_1_1" index="1" speed="35.00" length="20.80" shape="1116.73,1002.26,-0.92 1116.73,981.46,-0.90"/>
    </edge>
    <edge id=":A_3" function="internal">
        <lane id=":A_3_0" index="0" speed="9.26" length="5.01" shape="1116.73,1002.26,-0.92 1117.44,997.29,-0.92"/>
    </edge>
    <edge id=":A_16" function="internal">
        <lane id=":A_16_0" index="0" speed="9.26" length="14.34" shape="1117.44,997.29,-0.92 1117.48,997.01,-0.92 1119.73,993.26,-0.92 1123.48,991.01,-0.92 1128.73,990.26,-0.92"/>
    </edge>
    <edge id=":A_4" function="internal">
        <lane id=":A_4_0" index="0" speed="6.51" length="9.03" shape="1128.73,996.66,-0.92 1126.28,997.01,-0.92 1124.53,998.06,-0.92 1123.48,999.81,-0.92 1123.13,1002.26,-0.92"/>
    </edge>
    <edge id=":A_5" function="internal">
        <lane id=":A_5_0" index="0" speed="35.00" length="20.80" shape="1128.73,996.66,-0.92 1107.93,996.66,-0.92"/>
        <lane id=":A_5_1" index="1" speed="35.00" length="20.80" shape="1128.73,993.46,-0.92 1107.93,993.46,-0.92"/>
    </edge>
    <edge id=":A_7" function="internal">
        <lane id=":A_7_0" index="0" speed="9.26" length="5.01" shape="1128.73,993.46,-0.92 1123.76,992.75,-0.92"/>
    </edge>
    <edge id=":A_17" function="internal">
        <lane id=":A_17_0" index="0" speed="9.26" length="14.34" shape="1123.76,992.75,-0.92 1123.48,992.71,-0.92 1119.73,990.46,-0.91 1117.48,986.71,-0.91 1116.73,981.46,-0.90"/>
    </edge>
    <edge id=":A_8" function="internal">
        <lane id=":A_8_0" index="0" speed="6.51" length="9.03" shape="1123.13,981.46,-0.90 1123.48,983.91,-0.91 1124.53,985.66,-0.91 1126.28,986.71,-0.92 1128.73,987.06,-0.92"/>
    </edge>
    <edge id=":A_9" function="internal">
        <lane id=":A_9_0" index="0" speed="35.00" length="20.80" shape="1123.13,981.46,-0.90 1123.13,1002.26,-0.92"/>
        <lane id=":A_9_1" index="1" speed="35.00" length="20.80" shape="1119.93,981.46,-0.90 1119.93,1002.26,-0.92"/>
    </edge>
    <edge id=":A_11" function="internal">
        <lane id=":A_11_0" index="0" speed="9.26" length="5.01" shape="1119.93,981.46,-0.90 1119.22,986.42,-0.91"/>
    </edge>
    <edge id=":A_18" function="internal">
        <lane id=":A_18_0" index="0" speed="9.26" length="14.34" shape="1119.22,986.42,-0.91 1119.18,986.71,-0.91 1116.93,990.46,-0.91 1113.18,992.71,-0.92 1107.93,993.46,-0.92"/>
    </edge>
    <edge id=":A_12" function="internal">
        <lane id=":A_12_0" index="0" speed="6.51" length="9.03" shape="1107.93,987.06,-0.92 1110.38,986.71,-0.92 1112.13,985.66,-0.91 1113.18,983.91,-0.91 1113.53,981.46,-0.90"/>
    </edge>
    <edge id=":A_13" function="internal">
        <lane id=":A_13_0" index="0" speed="35.00" length="20.80" shape="1107.93,987.06,-0.92 1128.73,987.06,-0.92"/>
        <lane id=":A_13_1" index="1" speed="35.00" length="20.80" shape="1107.93,990.26,-0.92 1128.73,990.26,-0.92"/>
    </edge>
    <edge id=":A_15" function="internal">
        <lane id=":A_15_0" index="0" speed="9.26" length="5.01" shape="1107.93,990.26,-0.92 1112.89,990.96,-0.92"/>
    </edge>
    <edge id=":A_19" function="internal">
        <lane id=":A_19_0" index="0" speed="9.26" length="14.34" shape="1112.89,990.96,-0.92 1113.18,991.01,-0.92 1116.93,993.26,-0.92 1119.18,997.01,-0.92 1119.93,1002.26,-0.92"/>
    </edge>
    <edge id=":AA_0" function="internal">
        <lane id=":AA_0_0" index="0" speed="3.65" length="4.67" shape="685.64,993.46,-0.92 684.44,992.66,-0.92 684.04,991.86,-0.92 684.44,991.06,-0.92 685.64,990.26,-0.92"/>
    </edge>
    <edge id=":AB_0" function="internal">
        <lane id=":AB_0_0" index="0" speed="3.65" length="4.67" shape="1119.93,1424.55,-0.92 1119.13,1425.75,-0.92 1118.33,1426.15,-0.92 1117.53,1425.75,-0.92 1116.73,1424.55,-0.92"/>
    </edge>
    <edge id=":AC_0" function="internal">
        <lane id=":AC_0_0" index="0" speed="3.65" length="4.67" shape="1551.02,990.26,-0.92 1552.22,991.06,-0.92 1552.62,991.86,-0.92 1552.22,992.66,-0.92 1551.02,993.46,-0.92"/>
    </edge>
    <edge id=":B_0" function="internal">
        <lane id=":B_0_0" index="0" speed="6.51" length="9.03" shape="1516.77,569.56,0.12 1516.42,567.11,0.12 1515.37,565.36,0.12 1513.62,564.31,0.12 1511.17,563.96,0.12"/>
    </edge>
    <edge id=":B_1" function="internal">
        <lane id=":B_1_0" index="0" speed="40.00" length="20.80" shape="1516.77,569.56,0.12 1516.77,548.76,0.12"/>
        <lane id=":B_1_1" index="1" speed="40.00" length="20.80" shape="1519.97,569.56,0.12 1519.97,548.76,0.12"/>
    </edge>
    <edge id=":B_3" function="internal">
        <lane id=":B_3_0" index="0" speed="9.26" length="5.01" shape="1519.97,569.56,0.12 1520.68,564.60,0.12"/>
    </edge>
    <edge id=":B_16" function="internal">
        <lane id=":B_16_0" index="0" speed="9.26" length="14.34" shape="1520.68,564.60,0.12 1520.72,564.31,0.12 1522.97,560.56,0.12 1526.72,558.31,0.12 1531.97,557.56,0.12"/>
    </edge>
    <edge id=":B_4" function="internal">
        <lane id=":B_4_0" index="0" speed="6.51" length="9.03" shape="1531.97,563.96,0.12 1529.52,564.31,0.12 1527.77,565.36,0.12 1526.72,567.11,0.12 1526.37,569.56,0.12"/>
    </edge>
    <edge id=":B_5" function="internal">
        <lane id=":B_5_0" index="0" speed="40.00" length="20.80" shape="1531.97,563.96,0.12 1511.17,563.96,0.12"/>
        <lane id=":B_5_1" index="1" speed="40.00" length="20.80" shape="1531.97,560.76,0.12 1511.17,560.76,0.12"/>
    </edge>
    <edge id=":B_7" function="internal">
        <lane id=":B_7_0" index="0" speed="9.26" length="5.01" shape="1531.97,560.76,0.12 1527.00,560.05,0.12"/>
    </edge>
    <edge id=":B_17" function="internal">
        <lane id=":B_17_0" index="0" speed="9.26" length="14.34" shape="1527.00,560.05,0.12 1526.72,560.01,0.12 1522.97,557.76,0.12 1520.72,554.01,0.12 1519.97,548.76,0.12"/>
    </edge>
    <edge id=":B_8" function="internal">
        <lane id=":B_8_0" index="0" speed="6.51" length="9.03" shape="1526.37,548.76,0.12 1526.72,551.21,0.12 1527.77,552.96,0.12 1529.52,554.01,0.12 1531.97,554.36,0.12"/>
    </edge>
    <edge id=":B_9" function="internal">
        <lane id=":B_9_0" index="0" speed="40.00" length="20.80" shape="1526.37,548.76,0.12 1526.37,569.56,0.12"/>
        <lane id=":B_9_1" index="1" speed="40.00" length="20.80" shape="1523.17,548.76,0.12 1523.17,569.56,0.12"/>
    </edge>
    <edge id=":B_11" function="internal">
        <lane id=":B_11_0" index="0" speed="9.26" length="5.01" shape="1523.17,548.76,0.12 1522.46,553.73,0.12"/>
    </edge>
    <edge id=":B_18" function="internal">
        <lane id=":B_18_0" index="0" speed="9.26" length="14.34" shape="1522.46,553.73,0.12 1522.42,554.01,0.12 1520.17,557.76,0.12 1516.42,560.01,0.12 1511.17,560.76,0.12"/>
    </edge>
    <edge id=":B_12" function="internal">
        <lane id=":B_12_0" index="0" speed="6.51" length="9.03" shape="1511.17,554.36,0.12 1513.62,554.01,0.12 1515.37,552.96,0.12 1516.42,551.21,0.12 1516.77,548.76,0.12"/>
    </edge>
    <edge id=":B_13" function="internal">
        <lane id=":B_13_0" index="0" speed="40.00" length="20.80" shape="1511.17,554.36,0.12 1531.97,554.36,0.12"/>
        <lane id=":B_13_1" index="1" speed="40.00" length="20.80" shape="1511.17,557.56,0.12 1531.97,557.56,0.12"/>
    </edge>
    <edge id=":B_15" function="internal">
        <lane id=":B_15_0" index="0" speed="9.26" length="5.01" shape="1511.17,557.56,0.12 1516.13,558.27,0.12"/>
    </edge>
    <edge id=":B_19" function="internal">
        <lane id=":B_19_0" index="0" speed="9.26" length="14.34" shape="1516.13,558.27,0.12 1516.42,558.31,0.12 1520.17,560.56,0.12 1522.42,564.31,0.12 1523.17,569.56,0.12"/>
    </edge>
    <edge id=":BA_0" function="internal">
        <lane id=":BA_0_0" index="0" speed="3.65" length="4.67" shape="1523.17,962.40,0.12 1522.37,963.60,0.12 1521.57,964.00,0.12 1520.77,963.60,0.12 1519.97,962.40,0.12"/>
    </edge>
    <edge id=":BB_0" function="internal">
        <lane id=":BB_0_0" index="0" speed="3.65" length="4.67" shape="1924.81,557.56,0.12 1926.01,558.36,0.12 1926.41,559.16,0.12 1926.01,559.96,0.12 1924.81,560.76,0.12"/>
    </edge>
    <edge id=":BC_0" function="internal">
        <lane id=":BC_0_0" index="0" speed="3.65" length="4.67" shape="1519.97,155.92,0.12 1520.77,154.72,0.12 1521.57,154.32,0.12 1522.37,154.72,0.12 1523.17,155.92,0.12"/>
    </edge>
    <edge id=":B_intern_0" function="internal">
        <lane id=":B_intern_0_0" index="0" speed="40.00" length="8.54" shape="1172.33,563.96,0.02 1169.87,564.46,0.02 1168.33,565.56,0.02 1166.79,566.66,0.01 1164.33,567.16,0.01"/>
        <lane id=":B_intern_0_1" index="1" speed="40.00" length="8.54" shape="1172.33,560.76,0.02 1169.87,561.26,0.02 1168.33,562.36,0.02 1166.79,563.46,0.01 1164.33,563.96,0.01"/>
        <lane id=":B_intern_0_2" index="2" speed="40.00" length="8.54" shape="1172.33,560.76,0.02 1164.33,560.76,0.01"/>
    </edge>
    <edge id=":C_0" function="internal">
        <lane id=":C_0_0" index="0" speed="6.51" length="9.03" shape="1113.53,314.59,-0.52 1113.18,312.14,-0.53 1112.13,310.39,-0.53 1110.38,309.34,-0.54 1107.93,308.99,-0.54"/>
    </edge>
    <edge id=":C_1" function="internal">
        <lane id=":C_1_0" index="0" speed="35.00" length="20.80" shape="1113.53,314.59,-0.52 1113.53,293.79,-0.54"/>
        <lane id=":C_1_1" index="1" speed="35.00" length="20.80" shape="1116.73,314.59,-0.52 1116.73,293.79,-0.54"/>
    </edge>
    <edge id=":C_3" function="internal">
        <lane id=":C_3_0" index="0" speed="9.26" length="5.01" shape="1116.73,314.59,-0.52 1117.44,309.63,-0.53"/>
    </edge>
    <edge id=":C_16" function="internal">
        <lane id=":C_16_0" index="0" speed="9.26" length="14.34" shape="1117.44,309.63,-0.53 1117.48,309.34,-0.53 1119.73,305.59,-0.53 1123.48,303.34,-0.54 1128.73,302.59,-0.54"/>
    </edge>
    <edge id=":C_4" function="internal">
        <lane id=":C_4_0" index="0" speed="6.51" length="9.03" shape="1128.73,308.99,-0.54 1126.28,309.34,-0.54 1124.53,310.39,-0.53 1123.48,312.14,-0.53 1123.13,314.59,-0.52"/>
    </edge>
    <edge id=":C_5" function="internal">
        <lane id=":C_5_0" index="0" speed="35.00" length="20.80" shape="1128.73,308.99,-0.54 1107.93,308.99,-0.54"/>
        <lane id=":C_5_1" index="1" speed="35.00" length="20.80" shape="1128.73,305.79,-0.54 1107.93,305.79,-0.54"/>
    </edge>
    <edge id=":C_7" function="internal">
        <lane id=":C_7_0" index="0" speed="9.26" length="5.01" shape="1128.73,305.79,-0.54 1123.76,305.08,-0.54"/>
    </edge>
    <edge id=":C_17" function="internal">
        <lane id=":C_17_0" index="0" speed="9.26" length="14.34" shape="1123.76,305.08,-0.54 1123.48,305.04,-0.54 1119.73,302.79,-0.54 1117.48,299.04,-0.54 1116.73,293.79,-0.54"/>
    </edge>
    <edge id=":C_8" function="internal">
        <lane id=":C_8_0" index="0" speed="6.51" length="9.03" shape="1123.13,293.79,-0.54 1123.48,296.24,-0.54 1124.53,297.99,-0.54 1126.28,299.04,-0.54 1128.73,299.39,-0.54"/>
    </edge>
    <edge id=":C_9" function="internal">
        <lane id=":C_9_0" index="0" speed="35.00" length="20.80" shape="1123.13,293.79,-0.54 1123.13,314.59,-0.52"/>
        <lane id=":C_9_1" index="1" speed="35.00" length="20.80" shape="1119.93,293.79,-0.54 1119.93,314.59,-0.52"/>
    </edge>
    <edge id=":C_11" function="internal">
        <lane id=":C_11_0" index="0" speed="9.26" length="5.01" shape="1119.93,293.79,-0.54 1119.22,298.75,-0.54"/>
    </edge>
    <edge id=":C_18" function="internal">
        <lane id=":C_18_0" index="0" speed="9.26" length="14.34" shape="1119.22,298.75,-0.54 1119.18,299.04,-0.54 1116.93,302.79,-0.54 1113.18,305.04,-0.54 1107.93,305.79,-0.54"/>
    </edge>
    <edge id=":C_12" function="internal">
        <lane id=":C_12_0" index="0" speed="6.51" length="9.03" shape="1107.93,299.39,-0.54 1110.38,299.04,-0.54 1112.13,297.99,-0.54 1113.18,296.24,-0.54 1113.53,293.79,-0.54"/>
    </edge>
    <edge id=":C_13" function="internal">
        <lane id=":C_13_0" index="0" speed="35.00" length="20.80" shape="1107.93,299.39,-0.54 1128.73,299.39,-0.54"/>
        <lane id=":C_13_1" index="1" speed="35.00" length="20.80" shape="1107.93,302.59,-0.54 1128.73,302.59,-0.54"/>
    </edge>
    <edge id=":C_15" function="internal">
        <lane id=":C_15_0" index="0" speed="9.26" length="5.01" shape="1107.93,302.59,-0.54 1112.89,303.30,-0.54"/>
    </edge>
    <edge id=":C_19" function="internal">
        <lane id=":C_19_0" index="0" speed="9.26" length="14.34" shape="1112.89,303.30,-0.54 1113.18,303.34,-0.54 1116.93,305.59,-0.53 1119.18,309.34,-0.53 1119.93,314.59,-0.52"/>
    </edge>
    <edge id=":CA_0" function="internal">
        <lane id=":CA_0_0" index="0" speed="3.65" length="4.67" shape="1373.30,302.59,-0.54 1374.50,303.39,-0.54 1374.90,304.19,-0.54 1374.50,304.99,-0.54 1373.30,305.79,-0.54"/>
    </edge>
    <edge id=":CB_0" function="internal">
        <lane id=":CB_0_0" index="0" speed="3.65" length="4.67" shape="1116.73,49.22,-0.54 1117.53,48.02,-0.54 1118.33,47.62,-0.54 1119.13,48.02,-0.54 1119.93,49.22,-0.54"/>
    </edge>
    <edge id=":CC_0" function="internal">
        <lane id=":CC_0_0" index="0" speed="3.65" length="4.67" shape="863.35,305.79,-0.54 862.15,304.99,-0.54 861.75,304.19,-0.54 862.15,303.39,-0.54 863.35,302.59,-0.54"/>
    </edge>
    <edge id=":D_0" function="internal">
        <lane id=":D_0_0" index="0" speed="6.51" length="9.03" shape="554.36,569.56,-0.85 554.01,567.11,-0.85 552.96,565.36,-0.85 551.21,564.31,-0.85 548.76,563.96,-0.85"/>
    </edge>
    <edge id=":D_1" function="internal">
        <lane id=":D_1_0" index="0" speed="35.00" length="20.80" shape="554.36,569.56,-0.85 554.36,548.76,-0.85"/>
        <lane id=":D_1_1" index="1" speed="35.00" length="20.80" shape="557.56,569.56,-0.85 557.56,548.76,-0.85"/>
    </edge>
    <edge id=":D_3" function="internal">
        <lane id=":D_3_0" index="0" speed="9.26" length="5.01" shape="557.56,569.56,-0.85 558.27,564.60,-0.85"/>
    </edge>
    <edge id=":D_16" function="internal">
        <lane id=":D_16_0" index="0" speed="9.26" length="14.34" shape="558.27,564.60,-0.85 558.31,564.31,-0.85 560.56,560.56,-0.84 564.31,558.31,-0.84 569.56,557.56,-0.84"/>
    </edge>
    <edge id=":D_4" function="internal">
        <lane id=":D_4_0" index="0" speed="6.51" length="9.03" shape="569.56,563.96,-0.84 567.11,564.31,-0.84 565.36,565.36,-0.84 564.31,567.11,-0.85 563.96,569.56,-0.85"/>
    </edge>
    <edge id=":D_5" function="internal">
        <lane id=":D_5_0" index="0" speed="35.00" length="20.80" shape="569.56,563.96,-0.84 548.76,563.96,-0.85"/>
        <lane id=":D_5_1" index="1" speed="35.00" length="20.80" shape="569.56,560.76,-0.84 548.76,560.76,-0.85"/>
    </edge>
    <edge id=":D_7" function="internal">
        <lane id=":D_7_0" index="0" speed="9.26" length="5.01" shape="569.56,560.76,-0.84 564.60,560.05,-0.84"/>
    </edge>
    <edge id=":D_17" function="internal">
        <lane id=":D_17_0" index="0" speed="9.26" length="14.34" shape="564.60,560.05,-0.84 564.31,560.01,-0.84 560.56,557.76,-0.84 558.31,554.01,-0.85 557.56,548.76,-0.85"/>
    </edge>
    <edge id=":D_8" function="internal">
        <lane id=":D_8_0" index="0" speed="6.51" length="9.03" shape="563.96,548.76,-0.85 564.31,551.21,-0.85 565.36,552.96,-0.84 567.11,554.01,-0.84 569.56,554.36,-0.84"/>
    </edge>
    <edge id=":D_9" function="internal">
        <lane id=":D_9_0" index="0" speed="35.00" length="20.80" shape="563.96,548.76,-0.85 563.96,569.56,-0.85"/>
        <lane id=":D_9_1" index="1" speed="35.00" length="20.80" shape="560.76,548.76,-0.85 560.76,569.56,-0.85"/>
    </edge>
    <edge id=":D_11" function="internal">
        <lane id=":D_11_0" index="0" speed="9.26" length="5.01" shape="560.76,548.76,-0.85 560.05,553.73,-0.85"/>
    </edge>
    <edge id=":D_18" function="internal">
        <lane id=":D_18_0" index="0" speed="9.26" length="14.34" shape="560.05,553.73,-0.85 560.01,554.01,-0.85 557.76,557.76,-0.85 554.01,560.01,-0.85 548.76,560.76,-0.85"/>
    </edge>
    <edge id=":D_12" function="internal">
        <lane id=":D_12_0" index="0" speed="6.51" length="9.03" shape="548.76,554.36,-0.85 551.21,554.01,-0.85 552.96,552.96,-0.85 554.01,551.21,-0.85 554.36,548.76,-0.85"/>
    </edge>
    <edge id=":D_13" function="internal">
        <lane id=":D_13_0" index="0" speed="35.00" length="20.80" shape="548.76,554.36,-0.85 569.56,554.36,-0.84"/>
        <lane id=":D_13_1" index="1" speed="35.00" length="20.80" shape="548.76,557.56,-0.85 569.56,557.56,-0.84"/>
    </edge>
    <edge id=":D_15" function="internal">
        <lane id=":D_15_0" index="0" speed="9.26" length="5.01" shape="548.76,557.56,-0.85 553.73,558.27,-0.85"/>
    </edge>
    <edge id=":D_19" function="internal">
        <lane id=":D_19_0" index="0" speed="9.26" length="14.34" shape="553.73,558.27,-0.85 554.01,558.31,-0.85 557.76,560.56,-0.85 560.01,564.31,-0.85 560.76,569.56,-0.85"/>
    </edge>
    <edge id=":DA_0" function="internal">
        <lane id=":DA_0_0" index="0" speed="3.65" length="4.67" shape="557.56,0.00,-0.85 558.36,-1.20,-0.85 559.16,-1.60,-0.85 559.96,-1.20,-0.85 560.76,0.00,-0.85"/>
    </edge>
    <edge id=":DB_0" function="internal">
        <lane id=":DB_0_0" index="0" speed="3.65" length="4.67" shape="0.00,560.76,-0.85 -1.20,559.96,-0.85 -1.60,559.16,-0.85 -1.20,558.36,-0.85 0.00,557.56,-0.85"/>
    </edge>
    <edge id=":DC_0" function="internal">
        <lane id=":DC_0_0" index="0" speed="3.65" length="4.67" shape="560.76,1118.33,-0.85 559.96,1119.53,-0.85 559.16,1119.93,-0.85 558.36,1119.53,-0.85 557.56,1118.33,-0.85"/>
    </edge>
    <edge id=":D_intern_0" function="internal">
        <lane id=":D_intern_0_0" index="0" speed="35.00" length="8.54" shape="1064.33,554.36,-0.08 1066.79,553.86,-0.08 1068.33,552.76,-0.08 1069.87,551.66,-0.07 1072.33,551.16,-0.07"/>
        <lane id=":D_intern_0_1" index="1" speed="35.00" length="8.54" shape="1064.33,557.56,-0.08 1066.79,557.06,-0.08 1068.33,555.96,-0.08 1069.87,554.86,-0.07 1072.33,554.36,-0.07"/>
        <lane id=":D_intern_0_2" index="2" speed="35.00" length="8.54" shape="1064.33,557.56,-0.08 1072.33,557.56,-0.07"/>
    </edge>
    <edge id=":TL_0" function="internal">
        <lane id=":TL_0_0" index="0" speed="7.33" length="11.73" shape="1113.53,572.76,-0.03 1113.18,568.91,-0.02 1112.13,566.16,-0.02 1110.38,564.51,-0.02 1107.93,563.96,-0.02"/>
    </edge>
    <edge id=":TL_1" function="internal">
        <lane id=":TL_1_0" index="0" speed="35.00" length="27.20" shape="1113.53,572.76,-0.03 1113.53,545.56,-0.03"/>
        <lane id=":TL_1_1" index="1" speed="35.00" length="27.20" shape="1116.73,572.76,-0.03 1116.73,545.56,-0.03"/>
    </edge>
    <edge id=":TL_3" function="internal">
        <lane id=":TL_3_0" index="0" speed="9.84" length="6.30" shape="1116.73,572.76,-0.03 1117.43,566.51,-0.02"/>
    </edge>
    <edge id=":TL_16" function="internal">
        <lane id=":TL_16_0" index="0" speed="9.84" length="15.70" shape="1117.43,566.51,-0.02 1117.48,566.11,-0.02 1119.73,561.36,-0.01 1123.48,558.51,-0.00 1128.73,557.56,0.00"/>
    </edge>
    <edge id=":TL_4" function="internal">
        <lane id=":TL_4_0" index="0" speed="6.51" length="9.03" shape="1128.73,567.16,0.00 1126.28,567.51,-0.01 1124.53,568.56,-0.01 1123.48,570.31,-0.02 1123.13,572.76,-0.03"/>
    </edge>
    <edge id=":TL_5" function="internal">
        <lane id=":TL_5_0" index="0" speed="37.50" length="21.12" shape="1128.73,567.16,0.00 1122.44,566.66,-0.00 1118.13,565.56,-0.01 1113.92,564.46,-0.01 1107.93,563.96,-0.02"/>
        <lane id=":TL_5_1" index="1" speed="37.50" length="21.12" shape="1128.73,563.96,0.00 1122.44,563.46,-0.00 1118.13,562.36,-0.01 1113.92,561.26,-0.01 1107.93,560.76,-0.02"/>
    </edge>
    <edge id=":TL_7" function="internal">
        <lane id=":TL_7_0" index="0" speed="9.84" length="5.50" shape="1128.73,560.76,0.00 1123.48,559.81,-0.00 1123.35,559.71,-0.00"/>
    </edge>
    <edge id=":TL_17" function="internal">
        <lane id=":TL_17_0" index="0" speed="9.84" length="16.49" shape="1123.35,559.71,-0.00 1119.73,556.96,-0.01 1117.48,552.21,-0.02 1116.73,545.56,-0.03"/>
    </edge>
    <edge id=":TL_8" function="internal">
        <lane id=":TL_8_0" index="0" speed="7.33" length="11.73" shape="1123.13,545.56,-0.03 1123.48,549.41,-0.02 1124.53,552.16,-0.01 1126.28,553.81,-0.00 1128.73,554.36,0.00"/>
    </edge>
    <edge id=":TL_9" function="internal">
        <lane id=":TL_9_0" index="0" speed="35.00" length="27.20" shape="1123.13,545.56,-0.03 1123.13,572.76,-0.03"/>
        <lane id=":TL_9_1" index="1" speed="35.00" length="27.20" shape="1119.93,545.56,-0.03 1119.93,572.76,-0.03"/>
    </edge>
    <edge id=":TL_11" function="internal">
        <lane id=":TL_11_0" index="0" speed="9.84" length="6.30" shape="1119.93,545.56,-0.03 1119.22,551.82,-0.03"/>
    </edge>
    <edge id=":TL_18" function="internal">
        <lane id=":TL_18_0" index="0" speed="9.84" length="15.70" shape="1119.22,551.82,-0.03 1119.18,552.21,-0.03 1116.93,556.96,-0.02 1113.18,559.81,-0.02 1107.93,560.76,-0.02"/>
    </edge>
    <edge id=":TL_12" function="internal">
        <lane id=":TL_12_0" index="0" speed="6.51" length="9.03" shape="1107.93,551.16,-0.02 1110.38,550.81,-0.02 1112.13,549.76,-0.02 1113.18,548.01,-0.03 1113.53,545.56,-0.03"/>
    </edge>
    <edge id=":TL_13" function="internal">
        <lane id=":TL_13_0" index="0" speed="37.50" length="21.12" shape="1107.93,551.16,-0.02 1114.21,551.66,-0.01 1118.52,552.76,-0.01 1122.74,553.86,-0.00 1128.73,554.36,0.00"/>
        <lane id=":TL_13_1" index="1" speed="37.50" length="21.12" shape="1107.93,554.36,-0.02 1114.21,554.86,-0.01 1118.52,555.96,-0.01 1122.74,557.06,-0.00 1128.73,557.56,0.00"/>
    </edge>
    <edge id=":TL_15" function="internal">
        <lane id=":TL_15_0" index="0" speed="9.84" length="5.50" shape="1107.93,557.56,-0.02 1113.18,558.51,-0.02 1113.31,558.61,-0.02"/>
    </edge>
    <edge id=":TL_19" function="internal">
        <lane id=":TL_19_0" index="0" speed="9.84" length="16.49" shape="1113.31,558.61,-0.02 1116.93,561.36,-0.02 1119.18,566.11,-0.03 1119.93,572.76,-0.03"/>
    </edge>

    <edge id="A2AA" from="A" to="AA" priority="-1">
        <lane id="A2AA_0" index="0" speed="35.00" length="422.29" shape="1107.93,996.66,-0.92 685.64,996.66,-0.92"/>
        <lane id="A2AA_1" index="1" speed="35.00" length="422.29" shape="1107.93,993.46,-0.92 685.64,993.46,-0.92"/>
    </edge>
    <edge id="A2AB" from="A" to="AB" priority="-1">
        <lane id="A2AB_0" index="0" speed="35.00" length="422.29" shape="1123.13,1002.26,-0.92 1123.13,1424.55,-0.92"/>
        <lane id="A2AB_1" index="1" speed="35.00" length="422.29" shape="1119.93,1002.26,-0.92 1119.93,1424.55,-0.92"/>
    </edge>
    <edge id="A2AC" from="A" to="AC" priority="-1">
        <lane id="A2AC_0" index="0" speed="35.00" length="422.29" shape="1128.73,987.06,-0.92 1551.02,987.06,-0.92"/>
        <lane id="A2AC_1" index="1" speed="35.00" length="422.29" shape="1128.73,990.26,-0.92 1551.02,990.26,-0.92"/>
    </edge>
    <edge id="A2TL" from="A" to="TL" priority="-1">
        <lane id="A2TL_0" index="0" speed="35.00" length="408.69" shape="1113.53,981.46,-0.90 1113.53,572.76,-0.03"/>
        <lane id="A2TL_1" index="1" speed="35.00" length="408.69" shape="1116.73,981.46,-0.90 1116.73,572.76,-0.03"/>
    </edge>
    <edge id="AA2A" from="AA" to="A" priority="-1">
        <lane id="AA2A_0" index="0" speed="35.00" length="422.29" shape="685.64,987.06,-0.92 1107.93,987.06,-0.92"/>
        <lane id="AA2A_1" index="1" speed="35.00" length="422.29" shape="685.64,990.26,-0.92 1107.93,990.26,-0.92"/>
    </edge>
    <edge id="AB2A" from="AB" to="A" priority="-1">
        <lane id="AB2A_0" index="0" speed="35.00" length="422.29" shape="1113.53,1424.55,-0.92 1113.53,1002.26,-0.92"/>
        <lane id="AB2A_1" index="1" speed="35.00" length="422.29" shape="1116.73,1424.55,-0.92 1116.73,1002.26,-0.92"/>
    </edge>
    <edge id="AC2A" from="AC" to="A" priority="-1">
        <lane id="AC2A_0" index="0" speed="35.00" length="422.29" shape="1551.02,996.66,-0.92 1128.73,996.66,-0.92"/>
        <lane id="AC2A_1" index="1" speed="35.00" length="422.29" shape="1551.02,993.46,-0.92 1128.73,993.46,-0.92"/>
    </edge>
    <edge id="B2BA" from="B" to="BA" priority="-1">
        <lane id="B2BA_0" index="0" speed="40.00" length="392.84" shape="1526.37,569.56,0.12 1526.37,962.40,0.12"/>
        <lane id="B2BA_1" index="1" speed="40.00" length="392.84" shape="1523.17,569.56,0.12 1523.17,962.40,0.12"/>
    </edge>
    <edge id="B2BB" from="B" to="BB" priority="-1">
        <lane id="B2BB_0" index="0" speed="40.00" length="392.84" shape="1531.97,554.36,0.12 1924.81,554.36,0.12"/>
        <lane id="B2BB_1" index="1" speed="40.00" length="392.84" shape="1531.97,557.56,0.12 1924.81,557.56,0.12"/>
    </edge>
    <edge id="B2BC" from="B" to="BC" priority="-1">
        <lane id="B2BC_0" index="0" speed="40.00" length="392.84" shape="1516.77,548.76,0.12 1516.77,155.92,0.12"/>
        <lane id="B2BC_1" index="1" speed="40.00" length="392.84" shape="1519.97,548.76,0.12 1519.97,155.92,0.12"/>
    </edge>
    <edge id="B2TL" from="B" to="B_intern" priority="-1">
        <lane id="B2TL_0" index="0" speed="40.00" length="338.84" shape="1511.17,563.96,0.12 1172.33,563.96,0.02"/>
        <lane id="B2TL_1" index="1" speed="40.00" length="338.84" shape="1511.17,560.76,0.12 1172.33,560.76,0.02"/>
    </edge>
    <edge id="B2TL_intern" from="B_intern" to="TL" priority="-1">
        <lane id="B2TL_intern_0" index="0" speed="40.00" length="35.60" shape="1164.33,567.16,0.01 1128.73,567.16,0.00"/>
        <lane id="B2TL_intern_1" index="1" speed="40.00" length="35.60" shape="1164.33,563.96,0.01 1128.73,563.96,0.00"/>
        <lane id="B2TL_intern_2" index="2" speed="40.00" length="35.60" shape="1164.33,560.76,0.01 1128.73,560.76,0.00"/>
    </edge>
    <edge id="BA2B" from="BA" to="B" priority="-1">
        <lane id="BA2B_0" index="0" speed="40.00" length="392.84" shape="1516.77,962.40,0.12 1516.77,569.56,0.12"/>
        <lane id="BA2B_1" index="1" speed="40.00" length="392.84" shape="1519.97,962.40,0.12 1519.97,569.56,0.12"/>
    </edge>
    <edge id="BB2B" from="BB" to="B" priority="-1">
        <lane id="BB2B_0" index="0" speed="40.00" length="392.84" shape="1924.81,563.96,0.12 1531.97,563.96,0.12"/>
        <lane id="BB2B_1" index="1" speed="40.00" length="392.84" shape="1924.81,560.76,0.12 1531.97,560.76,0.12"/>
    </edge>
    <edge id="BC2B" from="BC" to="B" priority="-1">
        <lane id="BC2B_0" index="0" speed="40.00" length="392.84" shape="1526.37,155.92,0.12 1526.37,548.76,0.12"/>
        <lane id="BC2B_1" index="1" speed="40.00" length="392.84" shape="1523.17,155.92,0.12 1523.17,548.76,0.12"/>
    </edge>
    <edge id="C2CA" from="C" to="CA" priority="-1">
        <lane id="C2CA_0" index="0" speed="35.00" length="244.57" shape="1128.73,299.39,-0.54 1373.30,299.39,-0.54"/>
        <lane id="C2CA_1" index="1" speed="35.00" length="244.57" shape="1128.73,302.59,-0.54 1373.30,302.59,-0.54"/>
    </edge>
    <edge id="C2CB" from="C" to="CB" priority="-1">
        <lane id="C2CB_0" index="0" speed="35.00" length="244.57" shape="1113.53,293.79,-0.54 1113.53,49.22,-0.54"/>
        <lane id="C2CB_1" index="1" speed="35.00" length="244.57" shape="1116.73,293.79,-0.54 1116.73,49.22,-0.54"/>
    </edge>
    <edge id="C2CC" from="C" to="CC" priority="-1">
        <lane id="C2CC_0" index="0" speed="35.00" length="244.57" shape="1107.93,308.99,-0.54 863.35,308.99,-0.54"/>
        <lane id="C2CC_1" index="1" speed="35.00" length="244.57" shape="1107.93,305.79,-0.54 863.35,305.79,-0.54"/>
    </edge>
    <edge id="C2TL" from="C" to="TL" priority="-1">
        <lane id="C2TL_0" index="0" speed="35.00" length="230.97" shape="1123.13,314.59,-0.52 1123.13,545.56,-0.03"/>
        <lane id="C2TL_1" index="1" speed="35.00" length="230.97" shape="1119.93,314.59,-0.52 1119.93,545.56,-0.03"/>
    </edge>
    <edge id="CA2C" from="CA" to="C" priority="-1">
        <lane id="CA2C_0" index="0" speed="35.00" length="244.57" shape="1373.30,308.99,-0.54 1128.73,308.99,-0.54"/>
        <lane id="CA2C_1" index="1" speed="35.00" length="244.57" shape="1373.30,305.79,-0.54 1128.73,305.79,-0.54"/>
    </edge>
    <edge id="CB2C" from="CB" to="C" priority="-1">
        <lane id="CB2C_0" index="0" speed="35.00" length="244.57" shape="1123.13,49.22,-0.54 1123.13,293.79,-0.54"/>
        <lane id="CB2C_1" index="1" speed="35.00" length="244.57" shape="1119.93,49.22,-0.54 1119.93,293.79,-0.54"/>
    </edge>