<?xml version="1.0" encoding="UTF-8"?>

<!-- generated on 2022-10-11 16:45:20 by Eclipse SUMO netconvert Version 1.14.1
<configuration xmlns:xsi="http://www.w3.org/2001/XMLSchema-instance" xsi:noNamespaceSchemaLocation="http://sumo.dlr.de/xsd/netconvertConfiguration.xsd">

    <input>
        <node-files value="../data/salt-lake-city/nodes.nod.xml"/>
        <edge-files value="../data/salt-lake-city/edges.edg.xml"/>
        <connection-files value="../data/salt-lake-city/connections.con.xml"/>
    </input>

    <output>
        <output-file value="../data/salt-lake-city/sumo/net/285.net.xml"/>
    </output>

    <tls_building>
        <tls.minor-left.max-speed value="1"/>
    </tls_building>

    <report>
        <verbose value="true"/>
    </report>

</configuration>
-->

<net version="1.9" junctionCornerDetail="5" limitTurnSpeed="5.50" xmlns:xsi="http://www.w3.org/2001/XMLSchema-instance" xsi:noNamespaceSchemaLocation="http://sumo.dlr.de/xsd/net_file.xsd">

    <location netOffset="875.66,1319.76" convBoundary="0.00,0.00,3515.19,2727.00" origBoundary="-875.66,-1319.76,2639.53,1407.23" projParameter="!"/>

    <edge id=":A_0" function="internal">
        <lane id=":A_0_0" index="0" speed="6.51" length="9.03" shape="870.86,2033.78,-10.94 870.51,2031.33,-10.94 869.46,2029.58,-10.94 867.71,2028.53,-10.94 865.26,2028.18,-10.94"/>
    </edge>
    <edge id=":A_1" function="internal">
        <lane id=":A_1_0" index="0" speed="40.00" length="20.80" shape="870.86,2033.78,-10.94 870.86,2012.98,-10.78"/>
        <lane id=":A_1_1" index="1" speed="40.00" length="20.80" shape="874.06,2033.78,-10.94 874.06,2012.98,-10.78"/>
    </edge>
    <edge id=":A_3" function="internal">
        <lane id=":A_3_0" index="0" speed="9.26" length="5.01" shape="874.06,2033.78,-10.94 874.77,2028.82,-10.94"/>
    </edge>
    <edge id=":A_16" function="internal">
        <lane id=":A_16_0" index="0" speed="9.26" length="14.34" shape="874.77,2028.82,-10.94 874.81,2028.53,-10.94 877.06,2024.78,-10.94 880.81,2022.53,-10.94 886.06,2021.78,-10.94"/>
    </edge>
    <edge id=":A_4" function="internal">
        <lane id=":A_4_0" index="0" speed="6.51" length="9.03" shape="886.06,2028.18,-10.94 883.61,2028.53,-10.94 881.86,2029.58,-10.94 880.81,2031.33,-10.94 880.46,2033.78,-10.94"/>
    </edge>
    <edge id=":A_5" function="internal">
        <lane id=":A_5_0" index="0" speed="40.00" length="20.80" shape="886.06,2028.18,-10.94 865.26,2028.18,-10.94"/>
        <lane id=":A_5_1" index="1" speed="40.00" length="20.80" shape="886.06,2024.98,-10.94 865.26,2024.98,-10.94"/>
    </edge>
    <edge id=":A_7" function="internal">
        <lane id=":A_7_0" index="0" speed="9.26" length="5.01" shape="886.06,2024.98,-10.94 881.10,2024.27,-10.90"/>
    </edge>
    <edge id=":A_17" function="internal">
        <lane id=":A_17_0" index="0" speed="9.26" length="14.34" shape="881.10,2024.27,-10.90 880.81,2024.23,-10.89 877.06,2021.98,-10.86 874.81,2018.23,-10.82 874.06,2012.98,-10.78"/>
    </edge>
    <edge id=":A_8" function="internal">
        <lane id=":A_8_0" index="0" speed="6.51" length="9.03" shape="880.46,2012.98,-10.78 880.81,2015.43,-10.82 881.86,2017.18,-10.86 883.61,2018.23,-10.89 886.06,2018.58,-10.94"/>
    </edge>
    <edge id=":A_9" function="internal">
        <lane id=":A_9_0" index="0" speed="40.00" length="20.80" shape="880.46,2012.98,-10.78 880.46,2033.78,-10.94"/>
        <lane id=":A_9_1" index="1" speed="40.00" length="20.80" shape="877.26,2012.98,-10.78 877.26,2033.78,-10.94"/>
    </edge>
    <edge id=":A_11" function="internal">
        <lane id=":A_11_0" index="0" speed="9.26" length="5.01" shape="877.26,2012.98,-10.78 876.55,2017.94,-10.82"/>
    </edge>
    <edge id=":A_18" function="internal">
        <lane id=":A_18_0" index="0" speed="9.26" length="14.34" shape="876.55,2017.94,-10.82 876.51,2018.23,-10.82 874.26,2021.98,-10.86 870.51,2024.23,-10.89 865.26,2024.98,-10.94"/>
    </edge>
    <edge id=":A_12" function="internal">
        <lane id=":A_12_0" index="0" speed="6.51" length="9.03" shape="865.26,2018.58,-10.94 867.71,2018.23,-10.89 869.46,2017.18,-10.86 870.51,2015.43,-10.82 870.86,2012.98,-10.78"/>
    </edge>
    <edge id=":A_13" function="internal">
        <lane id=":A_13_0" index="0" speed="40.00" length="20.80" shape="865.26,2018.58,-10.94 886.06,2018.58,-10.94"/>
        <lane id=":A_13_1" index="1" speed="40.00" length="20.80" shape="865.26,2021.78,-10.94 886.06,2021.78,-10.94"/>
    </edge>
    <edge id=":A_15" function="internal">
        <lane id=":A_15_0" index="0" speed="9.26" length="5.01" shape="865.26,2021.78,-10.94 870.22,2022.49,-10.94"/>
    </edge>
    <edge id=":A_19" function="internal">
        <lane id=":A_19_0" index="0" speed="9.26" length="14.34" shape="870.22,2022.49,-10.94 870.51,2022.53,-10.94 874.26,2024.78,-10.94 876.51,2028.53,-10.94 877.26,2033.78,-10.94"/>
    </edge>
    <edge id=":AA_0" function="internal">
        <lane id=":AA_0_0" index="0" speed="3.65" length="4.67" shape="172.04,2024.98,-10.94 170.84,2024.18,-10.94 170.44,2023.38,-10.94 170.84,2022.58,-10.94 172.04,2021.78,-10.94"/>
    </edge>
    <edge id=":AB_0" function="internal">
        <lane id=":AB_0_0" index="0" speed="3.65" length="4.67" shape="877.26,2727.00,-10.94 876.46,2728.20,-10.94 875.66,2728.60,-10.94 874.86,2728.20,-10.94 874.06,2727.00,-10.94"/>
    </edge>
    <edge id=":AC_0" function="internal">
        <lane id=":AC_0_0" index="0" speed="3.65" length="4.67" shape="1579.28,2021.78,-10.94 1580.48,2022.58,-10.94 1580.88,2023.38,-10.94 1580.48,2024.18,-10.94 1579.28,2024.98,-10.94"/>
    </edge>
    <edge id=":C_0" function="internal">
        <lane id=":C_0_0" index="0" speed="7.33" length="11.73" shape="870.86,1071.22,-4.95 870.31,1068.77,-4.95 868.66,1067.02,-4.95 865.91,1065.97,-4.95 862.06,1065.62,-4.95"/>
    </edge>
    <edge id=":C_1" function="internal">
        <lane id=":C_1_0" index="0" speed="40.00" length="27.43" shape="870.86,1071.22,-4.95 870.36,1064.68,-4.95 869.26,1059.01,-4.95 868.16,1052.64,-4.95 867.66,1044.02,-4.95"/>
        <lane id=":C_1_1" index="1" speed="40.00" length="27.43" shape="874.06,1071.22,-4.95 873.56,1064.68,-4.95 872.46,1059.01,-4.95 871.36,1052.64,-4.95 870.86,1044.02,-4.95"/>
    </edge>
    <edge id=":C_3" function="internal">
        <lane id=":C_3_0" index="0" speed="10.36" length="10.84" shape="874.06,1071.22,-4.95 875.01,1064.57,-4.95 877.13,1061.03,-4.95"/>
    </edge>
    <edge id=":C_16" function="internal">
        <lane id=":C_16_0" index="0" speed="10.36" length="13.67" shape="877.13,1061.03,-4.95 877.86,1059.82,-4.95 882.61,1056.97,-4.95 889.26,1056.02,-4.95"/>
    </edge>
    <edge id=":C_4" function="internal">
        <lane id=":C_4_0" index="0" speed="7.33" length="11.73" shape="889.26,1062.42,-4.95 886.81,1062.97,-4.95 885.06,1064.62,-4.95 884.01,1067.37,-4.95 883.66,1071.22,-4.95"/>
    </edge>
    <edge id=":C_5" function="internal">
        <lane id=":C_5_0" index="0" speed="40.00" length="27.43" shape="889.26,1062.42,-4.95 882.72,1062.92,-4.95 877.05,1064.02,-4.95 870.68,1065.12,-4.95 862.06,1065.62,-4.95"/>
        <lane id=":C_5_1" index="1" speed="40.00" length="27.43" shape="889.26,1059.22,-4.95 882.72,1059.72,-4.95 877.05,1060.82,-4.95 870.68,1061.92,-4.95 862.06,1062.42,-4.95"/>
    </edge>
    <edge id=":C_7" function="internal">
        <lane id=":C_7_0" index="0" speed="10.36" length="10.84" shape="889.26,1059.22,-4.95 882.61,1058.27,-4.95 879.07,1056.15,-4.95"/>
    </edge>
    <edge id=":C_17" function="internal">
        <lane id=":C_17_0" index="0" speed="10.36" length="13.67" shape="879.07,1056.15,-4.95 877.86,1055.42,-4.95 875.01,1050.67,-4.95 874.06,1044.02,-4.95"/>
    </edge>
    <edge id=":C_8" function="internal">
        <lane id=":C_8_0" index="0" speed="7.33" length="11.73" shape="880.46,1044.02,-4.95 881.01,1046.47,-4.95 882.66,1048.22,-4.95 885.41,1049.27,-4.95 889.26,1049.62,-4.95"/>
    </edge>
    <edge id=":C_9" function="internal">
        <lane id=":C_9_0" index="0" speed="40.00" length="27.43" shape="880.46,1044.02,-4.95 880.96,1050.56,-4.95 882.06,1056.24,-4.95 883.16,1062.60,-4.95 883.66,1071.22,-4.95"/>
        <lane id=":C_9_1" index="1" speed="40.00" length="27.43" shape="877.26,1044.02,-4.95 877.76,1050.56,-4.95 878.86,1056.24,-4.95 879.96,1062.60,-4.95 880.46,1071.22,-4.95"/>
    </edge>
    <edge id=":C_11" function="internal">
        <lane id=":C_11_0" index="0" speed="10.36" length="10.84" shape="877.26,1044.02,-4.95 876.31,1050.67,-4.95 874.19,1054.21,-4.95"/>
    </edge>
    <edge id=":C_18" function="internal">
        <lane id=":C_18_0" index="0" speed="10.36" length="13.67" shape="874.19,1054.21,-4.95 873.46,1055.42,-4.95 868.71,1058.27,-4.95 862.06,1059.22,-4.95"/>
    </edge>
    <edge id=":C_12" function="internal">
        <lane id=":C_12_0" index="0" speed="7.33" length="11.73" shape="862.06,1052.82,-4.95 864.51,1052.27,-4.95 866.26,1050.62,-4.95 867.31,1047.87,-4.95 867.66,1044.02,-4.95"/>
    </edge>
    <edge id=":C_13" function="internal">
        <lane id=":C_13_0" index="0" speed="40.00" length="27.43" shape="862.06,1052.82,-4.95 868.60,1052.32,-4.95 874.28,1051.22,-4.95 880.64,1050.12,-4.95 889.26,1049.62,-4.95"/>
        <lane id=":C_13_1" index="1" speed="40.00" length="27.43" shape="862.06,1056.02,-4.95 868.60,1055.52,-4.95 874.28,1054.42,-4.95 880.64,1053.32,-4.95 889.26,1052.82,-4.95"/>
    </edge>
    <edge id=":C_15" function="internal">
        <lane id=":C_15_0" index="0" speed="10.36" length="10.84" shape="862.06,1056.02,-4.95 868.71,1056.97,-4.95 872.25,1059.09,-4.95"/>
    </edge>
    <edge id=":C_19" function="internal">
        <lane id=":C_19_0" index="0" speed="10.36" length="13.67" shape="872.25,1059.09,-4.95 873.46,1059.82,-4.95 876.31,1064.57,-4.95 877.26,1071.22,-4.95"/>
    </edge>
    <edge id=":CA_0" function="internal">
        <lane id=":CA_0_0" index="0" speed="3.65" length="4.67" shape="1137.80,1056.02,-4.95 1139.00,1056.82,-4.95 1139.40,1057.62,-4.95 1139.00,1058.42,-4.95 1137.80,1059.22,-4.95"/>
    </edge>
    <edge id=":CB_0" function="internal">
        <lane id=":CB_0_0" index="0" speed="3.65" length="4.67" shape="874.06,795.48,-4.95 874.86,794.28,-4.95 875.66,793.88,-4.95 876.46,794.28,-4.95 877.26,795.48,-4.95"/>
    </edge>
    <edge id=":CC_0" function="internal">
        <lane id=":CC_0_0" index="0" speed="3.65" length="4.67" shape="613.52,1059.22,-4.95 612.32,1058.42,-4.95 611.92,1057.62,-4.95 612.32,1056.82,-4.95 613.52,1056.02,-4.95"/>
    </edge>
    <edge id=":TL_0" function="internal">
        <lane id=":TL_0_0" index="0" speed="6.51" length="9.03" shape="870.86,1330.16,-0.16 870.51,1327.71,-0.11 869.46,1325.96,-0.07 867.71,1324.91,-0.03 865.26,1324.56,0.03"/>
    </edge>
    <edge id=":TL_1" function="internal">
        <lane id=":TL_1_0" index="0" speed="40.00" length="14.40" shape="870.86,1330.16,-0.16 870.86,1315.76,-0.08"/>
        <lane id=":TL_1_1" index="1" speed="40.00" length="14.40" shape="874.06,1330.16,-0.16 874.06,1315.76,-0.08"/>
    </edge>
    <edge id=":TL_3" function="internal">
        <lane id=":TL_3_0" index="0" speed="7.33" length="11.73" shape="889.26,1324.56,-0.19 885.41,1324.91,-0.18 882.66,1325.96,-0.17 881.01,1327.71,-0.17 880.46,1330.16,-0.16"/>
    </edge>
    <edge id=":TL_4" function="internal">
        <lane id=":TL_4_0" index="0" speed="62.50" length="24.00" shape="889.26,1324.56,-0.19 865.26,1324.56,0.03"/>
    </edge>
    <edge id=":TL_5" function="internal">
        <lane id=":TL_5_0" index="0" speed="9.94" length="22.48" shape="889.26,1324.56,-0.19 881.21,1324.01,-0.15 875.46,1322.36,-0.12 872.01,1319.61,-0.10 870.86,1315.76,-0.08"/>
        <lane id=":TL_5_1" index="1" speed="8.83" length="17.50" shape="889.26,1321.36,-0.19 882.61,1321.01,-0.15 877.86,1319.96,-0.11 875.01,1318.21,-0.09 874.06,1315.76,-0.08"/>
    </edge>
    <edge id=":TL_7" function="internal">
        <lane id=":TL_7_0" index="0" speed="40.00" length="14.86" shape="883.66,1315.76,-0.08 883.16,1320.09,-0.10 882.06,1322.96,-0.12 880.96,1325.84,-0.14 880.46,1330.16,-0.16"/>
        <lane id=":TL_7_1" index="1" speed="40.00" length="14.86" shape="880.46,1315.76,-0.08 879.96,1320.09,-0.10 878.86,1322.96,-0.12 877.76,1325.84,-0.14 877.26,1330.16,-0.16"/>
    </edge>
    <edge id=":TL_9" function="internal">
        <lane id=":TL_9_0" index="0" speed="8.10" length="2.37" shape="877.26,1315.76,-0.08 876.57,1318.03,-0.06"/>
    </edge>
    <edge id=":TL_10" function="internal">
        <lane id=":TL_10_0" index="0" speed="8.10" length="12.20" shape="876.57,1318.03,-0.06 876.51,1318.21,-0.06 874.26,1319.96,-0.04 870.51,1321.01,-0.01 865.26,1321.36,0.03"/>
    </edge>

    <edge id="A2AA" from="A" to="AA" priority="-1">
        <lane id="A2AA_0" index="0" speed="40.00" length="693.22" shape="865.26,2028.18,-10.94 172.04,2028.18,-10.94"/>
        <lane id="A2AA_1" index="1" speed="40.00" length="693.22" shape="865.26,2024.98,-10.94 172.04,2024.98,-10.94"/>
    </edge>
    <edge id="A2AB" from="A" to="AB" priority="-1">
        <lane id="A2AB_0" index="0" speed="40.00" length="693.22" shape="880.46,2033.78,-10.94 880.46,2727.00,-10.94"/>
        <lane id="A2AB_1" index="1" speed="40.00" length="693.22" shape="877.26,2033.78,-10.94 877.26,2727.00,-10.94"/>
    </edge>
    <edge id="A2AC" from="A" to="AC" priority="-1">
        <lane id="A2AC_0" index="0" speed="40.00" length="693.22" shape="886.06,2018.58,-10.94 1579.28,2018.58,-10.94"/>
        <lane id="A2AC_1" index="1" speed="40.00" length="693.22" shape="886.06,2021.78,-10.94 1579.28,2021.78,-10.94"/>
    </edge>
    <edge id="A2TL" from="A" to="TL" priority="-1">
        <lane id="A2TL_0" index="0" speed="40.00" length="682.90" shape="870.86,2012.98,-10.78 870.86,1330.16,-0.16"/>
        <lane id="A2TL_1" index="1" speed="40.00" length="682.90" shape="874.06,2012.98,-10.78 874.06,1330.16,-0.16"/>
    </edge>
    <edge id="AA2A" from="AA" to="A" priority="-1">
        <lane id="AA2A_0" index="0" speed="40.00" length="693.22" shape="172.04,2018.58,-10.94 865.26,2018.58,-10.94"/>
        <lane id="AA2A_1" index="1" speed="40.00" length="693.22" shape="172.04,2021.78,-10.94 865.26,2021.78,-10.94"/>
    </edge>
    <edge id="AB2A" from="AB" to="A" priority="-1">
        <lane id="AB2A_0" index="0" speed="40.00" length="693.22" shape="870.86,2727.00,-10.94 870.86,2033.78,-10.94"/>
        <lane id="AB2A_1" index="1" speed="40.00" length="693.22" shape="874.06,2727.00,-10.94 874.06,2033.78,-10.94"/>
    </edge>
    <edge id="AC2A" from="AC" to="A" priority="-1">
        <lane id="AC2A_0" index="0" speed="40.00" length="693.22" shape="1579.28,2028.18,-10.94 886.06,2028.18,-10.94"/>
        <lane id="AC2A_1" index="1" speed="40.00" length="693.22" shape="1579.28,2024.98,-10.94 886.06,2024.98,-10.94"/>
    </edge>
    <edge id="B2BA" from="B" to="BA" priority="-1">
        <lane id="B2BA_0" index="0" speed="55.00" length="1311.86" shape="2200.22,1327.66,-18.50 2200.22,2639.53,-18.50"/>
        <lane id="B2BA_1" index="1" speed="55.00" length="1311.86" shape="2197.02,1327.66,-18.50 2197.02,2639.53,-18.50"/>
    </edge>
    <edge id="B2BB" from="B" to="BB" priority="-1">
        <lane id="B2BB_0" index="0" speed="55.00" length="1311.86" shape="2203.32,1314.96,-18.50 3515.19,1314.96,-18.50"/>
        <lane id="B2BB_1" index="1" speed="55.00" length="1311.86" shape="2203.32,1318.16,-18.50 3515.19,1318.16,-18.50"/>
    </edge>
    <edge id="B2BC" from="B" to="BC" priority="-1">
        <lane id="B2BC_0" index="0" speed="55.00" length="1311.86" shape="2190.62,1311.86,-18.50 2190.62,0.00,-18.50"/>
        <lane id="B2BC_1" index="1" speed="55.00" length="1311.86" shape="2193.82,1311.86,-18.50 2193.82,0.00,-18.50"/>
    </edge>
    <edge id="B2TL" from="B" to="TL" priority="-1">
        <lane id="B2TL_0" index="0" speed="55.00" length="1298.39" shape="2187.52,1324.56,-18.39 889.26,1324.56,-0.19"/>
        <lane id="B2TL_1" index="1" speed="55.00" length="1298.39" shape="2187.52,1321.36,-18.39 889.26,1321.36,-0.19"/>
    </edge>
    <edge id="C2CA" from="C" to="CA" priority="-1">
        <lane id="C2CA_0" index="0" speed="40.00" length="248.54" shape="889.26,1049.62,-4.95 1137.80,1049.62,-4.95"/>
        <lane id="C2CA_1" index="1" speed="40.00" length="248.54" shape="889.26,1052.82,-4.95 1137.80,1052.82,-4.95"/>
        <lane id="C2CA_2" index="2" speed="40.00" length="248.54" shape="889.26,1056.02,-4.95 1137.80,1056.02,-4.95"/>
    </edge>
    <edge id="C2CB" from="C" to="CB" priority="-1">
        <lane id="C2CB_0" index="0" speed="40.00" length="248.54" shape="867.66,1044.02,-4.95 867.66,795.48,-4.95"/>
        <lane id="C2CB_1" index="1" speed="40.00" length="248.54" shape="870.86,1044.02,-4.95 870.86,795.48,-4.95"/>
        <lane id="C2CB_2" index="2" speed="40.00" length="248.54" shape="874.06,1044.02,-4.95 874.06,795.48,-4.95"/>
    </edge>
    <edge id="C2CC" from="C" to="CC" priority="-1">
        <lane id="C2CC_0" index="0" speed="40.00" length="248.54" shape="862.06,1065.62,-4.95 613.52,1065.62,-4.95"/>
        <lane id="C2CC_1" index="1" speed="40.00" length="248.54" shape="862.06,1062.42,-4.95 613.52,1062.42,-4.95"/>
        <lane id="C2CC_2" index="2" speed="40.00" length="248.54" shape="862.06,1059.22,-4.95 613.52,1059.22,-4.95"/>
    </edge>
    <edge id="C2TL" from="C" to="TL" priority="-1">
        <lane id="C2TL_0" index="0" speed="40.00" length="244.59" shape="883.66,1071.22,-4.95 883.66,1315.76,-0.08"/>
        <lane id="C2TL_1" index="1" speed="40.00" length="244.59" shape="880.46,1071.22,-4.95 880.46,1315.76,-0.08"/>
        <lane id="C2TL_2" index="2" speed="40.00" length="244.59" shape="877.26,1071.22,-4.95 877.26,1315.76,-0.08"/>
    </edge>
    <edge id="CA2C" from="CA" to="C" priority="-1">
        <lane id="CA2C_0" index="0" speed="40.00" length="248.54" shape="1137.80,1062.42,-4.95 889.26,1062.42,-4.95"/>
        <lane id="CA2C_1" index="1" speed="40.00" length="248.54" shape="1137.80,1059.22,-4.95 889.26,1059.22,-4.95"/>
    </edge>
    <edge id="CB2C" from="CB" to="C" priority="-1">
        <lane id="CB2C_0" index="0" speed="40.00" length="248.54" shape="880.46,795.48,-4.95 880.46,1044.02,-4.95"/>
        <lane id="CB2C_1" index="1" speed="40.00" length="248.54" shape="877.26,795.48,-4.95 877.26,1044.02,-4.95"/>
    </edge>
    <edge id="CC2C" from="CC" to="C" priority="-1">
        <lane id="CC2C_0" index="0" speed="40.00" length="248.54" shape="613.52,1052.82,-4.95 862.06,1052.82,-4.95"/>
        <lane id="CC2C_1" index="1" speed="40.00" length="248.54" shape="613.52,1056.02,-4.95 862.06,1056.02,-4.95"/>
    </edge>
    <edge id="DA2D" from="DA" to="D" priority="-1">
        <lane id="DA2D_0" index="0" speed="70.00" length="429.93" shape="442.63,881.93,1.07 442.63,1311.86,1.07"/>
        <lane id="DA2D_1" index="1" speed="70.00" length="429.93" shape="439.43,881.93,1.07 439.43,1311.86,1.07"/>
    </edge>
    <edge id="DB2D" from="DB" to="D" priority="-1">
        <lane id="DB2D_0" index="0" speed="70.00" length="429.93" shape="-0.00,1314.96,1.07 429.93,1314.96,1.07"/>
        <lane id="DB2D_1" index="1" speed="70.00" length="429.93" shape="-0.00,1318.16,1.07 429.93,1318.16,1.07"/>
    </edge>
    <edge id="DC2D" from="DC" to="D" priority="-1">
        <lane id="DC2D_0" index="0" speed="70.00" length="429.93" shape="433.03,1757.59,1.07 433.03,1327.66,1.07"/>
        <lane id="DC2D_1" index="1" speed="70.00" length="429.93" shape="436.23,1757.59,1.07 436.23,1327.66,1.07"/>
    </edge>
    <edge id="TL2A" from="TL" to="A" priority="-1">
        <lane id="TL2A_0" index="0" speed="40.00" length="682.90" shape="880.46,1330.16,-0.16 880.46,2012.98,-10.78"/>
        <lane id="TL2A_1" index="1" speed="40.00" length="682.90" shape="877.26,1330.16,-0.16 877.26,2012.98,-10.78"/>
    </edge>
    <edge id="TL2C" from="TL" to="C" priority="-1">
        <lane id="TL2C_0" index="0" speed="40.00" length="244.59" shape="870.86,1315.76,-0.08 870.86,1071.22,-4.95"/>
        <lane id="TL2C_1" index="1" speed="40.00" length="244.59" shape="874.06,1315.76,-0.08 874.06,1071.22,-4.95"/>
    </edge>
    <edge id="TL2D" from="TL" to="D" priority="-1">
        <lane id="TL2D_0" index="0" speed="70.00" length="419.53" shape="865.26,1324.56,0.03 445.73,1324.56,1.05"/>
        <lane id="TL2D_1" index="1" speed="70.00" length="419.53" shape="865.26,1321.36,0.03 445.73,1321.36,1.05"/>
    </edge>

    <tlLogic id="A" type="static" programID="0" offset="0">
        <phase duration="37" state="GGGgrrrrGGGgrrrr"/>
        <phase duration="8"  state="yyyyrrrryyyyrrrr"/>
        <phase duration="37" state="rrrrGGGgrrrrGGGg"/>
        <phase duration="8"  state="rrrryyyyrrrryyyy"/>
    </tlLogic>
    <tlLogic id="AA" type="static" programID="0" offset="0">
        <phase duration="77" state="G"/>
        <phase duration="8"  state="y"/>
        <phase duration="5"  state="r"/>
    </tlLogic>
    <tlLogic id="AB" type="static" programID="0" offset="0">
        <phase duration="77" state="G"/>
        <phase duration="8"  state="y"/>
        <phase duration="5"  state="r"/>
    </tlLogic>
    <tlLogic id="AC" type="static" programID="0" offset="0">
        <phase duration="77" state="G"/>
        <phase duration="8"  state="y"/>
        <phase duration="5"  state="r"/>
    </tlLogic>
    <tlLogic id="C" type="static" programID="0" offset="0">
        <phase duration="37" state="GGGgrrrrGGGgrrrr"/>
        <phase duration="8"  state="yyyyrrrryyyyrrrr"/>
        <phase duration="37" state="rrrrGGGgrrrrGGGg"/>
        <phase duration="8"  state="rrrryyyyrrrryyyy"/>
    </tlLogic>
    <tlLogic id="CA" type="static" programID="0" offset="0">
        <phase duration="77" state="G"/>
        <phase duration="8"  state="y"/>
        <phase duration="5"  state="r"/>
    </tlLogic>
    <tlLogic id="CB" type="static" programID="0" offset="0">
        <phase duration="77" state="G"/>
        <phase duration="8"  state="y"/>
        <phase duration="5"  state="r"/>
    </tlLogic>
    <tlLogic id="CC" type="static" programID="0" offset="0">
        <phase duration="77" state="G"/>
        <phase duration="8"  state="y"/>
        <phase duration="5"  state="r"/>
    </tlLogic>
    <tlLogic id="TL" type="static" programID="0" offset="0">
        <phase duration="27" state="GGGsrrrGGr"/>
        <phase duration="10" state="yyysrrryyr"/>
        <phase duration="6"  state="rrrsrrrGGG"/>
        <phase duration="10" state="rrrsrrryyy"/>
        <phase duration="27" state="srrGGGGrrr"/>
        <phase duration="10" state="srryyyyrrr"/>
    </tlLogic>

    <junction id="A" type="traffic_light" x="875.66" y="2023.38" z="-10.94" incLanes="AB2A_0 AB2A_1 AC2A_0 AC2A_1 TL2A_0 TL2A_1 AA2A_0 AA2A_1" intLanes=":A_0_0 :A_1_0 :A_1_1 :A_16_0 :A_4_0 :A_5_0 :A_5_1 :A_17_0 :A_8_0 :A_9_0 :A_9_1 :A_18_0 :A_12_0 :A_13_0 :A_13_1 :A_19_0" shape="869.26,2033.78,-10.94 882.06,2033.78,-10.94 882.51,2031.56,-10.94 883.06,2030.78,-10.94 883.84,2030.22,-10.94 884.84,2029.89,-10.94 886.06,2029.78,-10.94 886.06,2016.98,-10.94 883.84,2016.54,-10.94 883.06,2015.98,-10.94 882.51,2015.20,-10.94 882.17,2014.20,-10.94 882.06,2012.98,-10.94 869.26,2012.98,-10.94 868.82,2015.20,-10.94 868.26,2015.98,-10.94 867.48,2016.54,-10.94 866.48,2016.87,-10.94 865.26,2016.98,-10.94 865.26,2029.78,-10.94 867.48,2030.22,-10.94 868.26,2030.78,-10.94 868.82,2031.56,-10.94 869.15,2032.56,-10.94">
        <request index="0"  response="0000000000000000" foes="0000000001100000" cont="0"/>
        <request index="1"  response="1000000010000000" foes="1111100011100000" cont="0"/>
        <request index="2"  response="1000000010000000" foes="1111100011100000" cont="0"/>
        <request index="3"  response="1000011010000000" foes="1110011011100000" cont="1"/>
        <request index="4"  response="0000011000000000" foes="0000011000000000" cont="0"/>
        <request index="5"  response="0000111000001111" foes="1000111000001111" cont="0"/>
        <request index="6"  response="0000111000001111" foes="1000111000001111" cont="0"/>
        <request index="7"  response="0110111000001110" foes="0110111000001110" cont="1"/>
        <request index="8"  response="0000000000000000" foes="0110000000000000" cont="0"/>
        <request index="9"  response="1000000010000000" foes="1110000011111000" cont="0"/>
        <request index="10" response="1000000010000000" foes="1110000011111000" cont="0"/>
        <request index="11" response="1000000010000110" foes="1110000011100110" cont="1"/>
        <request index="12" response="0000000000000110" foes="0000000000000110" cont="0"/>
        <request index="13" response="0000111100001110" foes="0000111110001110" cont="0"/>
        <request index="14" response="0000111100001110" foes="0000111110001110" cont="0"/>
        <request index="15" response="0000111001101110" foes="0000111001101110" cont="1"/>
    </junction>
    <junction id="AA" type="traffic_light" x="172.04" y="2023.38" z="-10.94" incLanes="A2AA_0 A2AA_1" intLanes=":AA_0_0" shape="172.04,2023.38,-10.94 172.04,2029.78,-10.94 172.04,2023.38,-10.94">
        <request index="0" response="0" foes="0" cont="0"/>
    </junction>
    <junction id="AB" type="traffic_light" x="875.66" y="2727.00" z="-10.94" incLanes="A2AB_0 A2AB_1" intLanes=":AB_0_0" shape="875.66,2727.00,-10.94 882.06,2727.00,-10.94 875.66,2727.00,-10.94">
        <request index="0" response="0" foes="0" cont="0"/>
    </junction>
    <junction id="AC" type="traffic_light" x="1579.28" y="2023.38" z="-10.94" incLanes="A2AC_0 A2AC_1" intLanes=":AC_0_0" shape="1579.28,2023.38,-10.94 1579.28,2016.98,-10.94 1579.28,2023.38,-10.94">
        <request index="0" response="0" foes="0" cont="0"/>
    </junction>
    <junction id="B" type="dead_end" x="2195.42" y="1319.76" z="-18.50" incLanes="" intLanes="" shape="2195.42,1327.66,-18.50 2201.82,1327.66,-18.50 2201.87,1325.25,-18.50 2201.99,1323.27,-18.50 2202.20,1321.74,-18.50 2202.49,1320.64,-18.50 2202.87,1319.98,-18.50 2203.32,1319.76,-18.50 2203.32,1313.36,-18.50 2200.91,1313.32,-18.50 2198.94,1313.20,-18.50 2197.40,1312.99,-18.50 2196.30,1312.70,-18.50 2195.64,1312.32,-18.50 2195.42,1311.86,-18.50 2189.02,1311.86,-18.50 2188.98,1314.28,-18.50 2188.86,1316.25,-18.50 2188.65,1317.79,-18.50 2188.36,1318.89,-18.50 2187.98,1319.54,-18.50 2187.52,1319.76,-18.50 2187.52,1326.16,-18.50 2189.94,1326.20,-18.50 2191.91,1326.33,-18.50 2193.45,1326.54,-18.50 2194.55,1326.83,-18.50 2195.21,1327.20,-18.50"/>
    <junction id="BA" type="dead_end" x="2195.42" y="2639.53" z="-18.50" incLanes="B2BA_0 B2BA_1" intLanes="" shape="2201.82,2639.53,-18.50 2195.42,2639.53,-18.50"/>
    <junction id="BB" type="dead_end" x="3515.19" y="1319.76" z="-18.50" incLanes="B2BB_0 B2BB_1" intLanes="" shape="3515.19,1313.36,-18.50 3515.19,1319.76,-18.50"/>
    <junction id="BC" type="dead_end" x="2195.42" y="0.00" z="-18.50" incLanes="B2BC_0 B2BC_1" intLanes="" shape="2189.02,0.00,-18.50 2195.42,0.00,-18.50"/>
    <junction id="C" type="traffic_light" x="875.66" y="1057.62" z="-4.95" incLanes="TL2C_0 TL2C_1 CA2C_0 CA2C_1 CB2C_0 CB2C_1 CC2C_0 CC2C_1" intLanes=":C_0_0 :C_1_0 :C_1_1 :C_16_0 :C_4_0 :C_5_0 :C_5_1 :C_17_0 :C_8_0 :C_9_0 :C_9_1 :C_18_0 :C_12_0 :C_13_0 :C_13_1 :C_19_0" shape="869.26,1071.22,-4.95 885.26,1071.22,-4.95 885.37,1069.02,-4.95 885.71,1067.22,-4.95 886.26,1065.82,-4.95 887.04,1064.82,-4.95 888.04,1064.22,-4.95 889.26,1064.02,-4.95 889.26,1048.02,-4.95 887.06,1047.91,-4.95 885.26,1047.58,-4.95 883.86,1047.02,-4.95 882.86,1046.24,-4.95 882.26,1045.24,-4.95 882.06,1044.02,-4.95 866.06,1044.02,-4.95 865.95,1046.22,-4.95 865.62,1048.02,-4.95 865.06,1049.42,-4.95 864.28,1050.42,-4.95 863.28,1051.02,-4.95 862.06,1051.22,-4.95 862.06,1067.22,-4.95 864.26,1067.33,-4.95 866.06,1067.66,-4.95 867.46,1068.22,-4.95 868.46,1069.00,-4.95 869.06,1070.00,-4.95">
        <request index="0"  response="0000000000000000" foes="0000000001100000" cont="0"/>
        <request index="1"  response="1000000000000000" foes="1111100001100000" cont="0"/>
        <request index="2"  response="1000000000000000" foes="1111100001100000" cont="0"/>
        <request index="3"  response="1000011010000000" foes="1000011011100000" cont="1"/>
        <request index="4"  response="0000011000000000" foes="0000011000000000" cont="0"/>
        <request index="5"  response="0000011000001111" foes="1000011000001111" cont="0"/>
        <request index="6"  response="0000011000001111" foes="1000011000001111" cont="0"/>
        <request index="7"  response="0110111000001000" foes="0110111000001000" cont="1"/>
        <request index="8"  response="0000000000000000" foes="0110000000000000" cont="0"/>
        <request index="9"  response="0000000010000000" foes="0110000011111000" cont="0"/>
        <request index="10" response="0000000010000000" foes="0110000011111000" cont="0"/>
        <request index="11" response="1000000010000110" foes="1110000010000110" cont="1"/>
        <request index="12" response="0000000000000110" foes="0000000000000110" cont="0"/>
        <request index="13" response="0000111100000110" foes="0000111110000110" cont="0"/>
        <request index="14" response="0000111100000110" foes="0000111110000110" cont="0"/>
        <request index="15" response="0000100001101110" foes="0000100001101110" cont="1"/>
    </junction>
    <junction id="CA" type="traffic_light" x="1137.80" y="1057.62" z="-4.95" incLanes="C2CA_0 C2CA_1 C2CA_2" intLanes=":CA_0_0" shape="1137.80,1057.62,-4.95 1137.80,1048.02,-4.95 1137.80,1057.62,-4.95">
        <request index="0" response="0" foes="0" cont="0"/>
    </junction>
    <junction id="CB" type="traffic_light" x="875.66" y="795.48" z="-4.95" incLanes="C2CB_0 C2CB_1 C2CB_2" intLanes=":CB_0_0" shape="875.66,795.48,-4.95 866.06,795.48,-4.95 875.66,795.48,-4.95">
        <request index="0" response="0" foes="0" cont="0"/>
    </junction>
    <junction id="CC" type="traffic_light" x="613.52" y="1057.62" z="-4.95" incLanes="C2CC_0 C2CC_1 C2CC_2" intLanes=":CC_0_0" shape="613.52,1057.62,-4.95 613.52,1067.22,-4.95 613.52,1057.62,-4.95">