<?xml version="1.0" encoding="UTF-8"?>

<!-- generated on 2022-10-11 17:11:05 by Eclipse SUMO netconvert Version 1.14.1
<configuration xmlns:xsi="http://www.w3.org/2001/XMLSchema-instance" xsi:noNamespaceSchemaLocation="http://sumo.dlr.de/xsd/netconvertConfiguration.xsd">

    <input>
        <node-files value="../data/salt-lake-city/nodes.nod.xml"/>
        <edge-files value="../data/salt-lake-city/edges.edg.xml"/>
        <connection-files value="../data/salt-lake-city/connections.con.xml"/>
    </input>

    <output>
        <output-file value="../data/salt-lake-city/sumo/net/288.net.xml"/>
    </output>

    <tls_building>
        <tls.minor-left.max-speed value="1"/>
    </tls_building>

    <report>
        <verbose value="true"/>
    </report>

</configuration>
-->

<net version="1.9" junctionCornerDetail="5" limitTurnSpeed="5.50" xmlns:xsi="http://www.w3.org/2001/XMLSchema-instance" xsi:noNamespaceSchemaLocation="http://sumo.dlr.de/xsd/net_file.xsd">

    <location netOffset="1212.48,606.24" convBoundary="0.00,0.00,2284.87,1212.48" origBoundary="-1212.48,-606.24,1072.40,606.24" projParameter="!"/>

    <edge id=":A_0" function="internal">
        <lane id=":A_0_0" index="0" speed="6.51" length="9.03" shape="1201.28,842.59,-0.54 1200.93,840.14,-0.54 1199.88,838.39,-0.54 1198.13,837.34,-0.54 1195.68,836.99,-0.54"/>
    </edge>
    <edge id=":A_1" function="internal">
        <lane id=":A_1_0" index="0" speed="40.00" length="33.60" shape="1201.28,842.59,-0.54 1201.28,808.99,-0.49"/>
        <lane id=":A_1_1" index="1" speed="40.00" length="33.60" shape="1204.48,842.59,-0.54 1204.48,808.99,-0.49"/>
        <lane id=":A_1_2" index="2" speed="40.00" length="33.60" shape="1207.68,842.59,-0.54 1207.68,808.99,-0.49"/>
        <lane id=":A_1_3" index="3" speed="40.00" length="33.60" shape="1210.88,842.59,-0.54 1210.88,808.99,-0.49"/>
    </edge>
    <edge id=":A_5" function="internal">
        <lane id=":A_5_0" index="0" speed="11.36" length="5.01" shape="1210.88,842.59,-0.54 1211.59,837.62,-0.54"/>
    </edge>
    <edge id=":A_24" function="internal">
        <lane id=":A_24_0" index="0" speed="11.36" length="24.66" shape="1211.59,837.62,-0.54 1212.03,834.54,-0.54 1215.48,828.79,-0.54 1221.23,825.34,-0.54 1229.28,824.19,-0.54"/>
    </edge>
    <edge id=":A_6" function="internal">
        <lane id=":A_6_0" index="0" speed="6.51" length="9.03" shape="1229.28,836.99,-0.54 1226.83,837.34,-0.54 1225.08,838.39,-0.54 1224.03,840.14,-0.54 1223.68,842.59,-0.54"/>
    </edge>
    <edge id=":A_7" function="internal">
        <lane id=":A_7_0" index="0" speed="40.00" length="33.60" shape="1229.28,836.99,-0.54 1195.68,836.99,-0.54"/>
        <lane id=":A_7_1" index="1" speed="40.00" length="33.60" shape="1229.28,833.79,-0.54 1195.68,833.79,-0.54"/>
        <lane id=":A_7_2" index="2" speed="40.00" length="33.60" shape="1229.28,830.59,-0.54 1195.68,830.59,-0.54"/>
        <lane id=":A_7_3" index="3" speed="40.00" length="33.60" shape="1229.28,827.39,-0.54 1195.68,827.39,-0.54"/>
    </edge>
    <edge id=":A_11" function="internal">
        <lane id=":A_11_0" index="0" speed="11.36" length="5.01" shape="1229.28,827.39,-0.54 1224.32,826.68,-0.53"/>
    </edge>
    <edge id=":A_25" function="internal">
        <lane id=":A_25_0" index="0" speed="11.36" length="24.66" shape="1224.32,826.68,-0.53 1221.23,826.24,-0.52 1215.48,822.79,-0.51 1212.03,817.04,-0.51 1210.88,808.99,-0.49"/>
    </edge>
    <edge id=":A_12" function="internal">
        <lane id=":A_12_0" index="0" speed="6.51" length="9.03" shape="1223.68,808.99,-0.49 1224.03,811.44,-0.51 1225.08,813.19,-0.51 1226.83,814.24,-0.52 1229.28,814.59,-0.54"/>
    </edge>
    <edge id=":A_13" function="internal">
        <lane id=":A_13_0" index="0" speed="40.00" length="33.60" shape="1223.68,808.99,-0.49 1223.68,842.59,-0.54"/>
        <lane id=":A_13_1" index="1" speed="40.00" length="33.60" shape="1220.48,808.99,-0.49 1220.48,842.59,-0.54"/>
        <lane id=":A_13_2" index="2" speed="40.00" length="33.60" shape="1217.28,808.99,-0.49 1217.28,842.59,-0.54"/>
        <lane id=":A_13_3" index="3" speed="40.00" length="33.60" shape="1214.08,808.99,-0.49 1214.08,842.59,-0.54"/>
    </edge>
    <edge id=":A_17" function="internal">
        <lane id=":A_17_0" index="0" speed="11.36" length="5.01" shape="1214.08,808.99,-0.49 1213.37,813.95,-0.50"/>
    </edge>
    <edge id=":A_26" function="internal">
        <lane id=":A_26_0" index="0" speed="11.36" length="24.66" shape="1213.37,813.95,-0.50 1212.93,817.04,-0.51 1209.48,822.79,-0.51 1203.73,826.24,-0.52 1195.68,827.39,-0.54"/>
    </edge>
    <edge id=":A_18" function="internal">
        <lane id=":A_18_0" index="0" speed="6.51" length="9.03" shape="1195.68,814.59,-0.54 1198.13,814.24,-0.52 1199.88,813.19,-0.51 1200.93,811.44,-0.51 1201.28,808.99,-0.49"/>
    </edge>
    <edge id=":A_19" function="internal">
        <lane id=":A_19_0" index="0" speed="40.00" length="33.60" shape="1195.68,814.59,-0.54 1229.28,814.59,-0.54"/>
        <lane id=":A_19_1" index="1" speed="40.00" length="33.60" shape="1195.68,817.79,-0.54 1229.28,817.79,-0.54"/>
        <lane id=":A_19_2" index="2" speed="40.00" length="33.60" shape="1195.68,820.99,-0.54 1229.28,820.99,-0.54"/>
        <lane id=":A_19_3" index="3" speed="40.00" length="33.60" shape="1195.68,824.19,-0.54 1229.28,824.19,-0.54"/>
    </edge>
    <edge id=":A_23" function="internal">
        <lane id=":A_23_0" index="0" speed="11.36" length="5.01" shape="1195.68,824.19,-0.54 1200.64,824.90,-0.54"/>
    </edge>
    <edge id=":A_27" function="internal">
        <lane id=":A_27_0" index="0" speed="11.36" length="24.66" shape="1200.64,824.90,-0.54 1203.73,825.34,-0.54 1209.48,828.79,-0.54 1212.93,834.54,-0.54 1214.08,842.59,-0.54"/>
    </edge>
    <edge id=":AA_0" function="internal">
        <lane id=":AA_0_0" index="0" speed="3.65" length="4.67" shape="992.93,827.39,-0.54 991.73,826.59,-0.54 991.33,825.79,-0.54 991.73,824.99,-0.54 992.93,824.19,-0.54"/>
    </edge>
    <edge id=":AB_0" function="internal">
        <lane id=":AB_0_0" index="0" speed="3.65" length="4.67" shape="1214.08,1045.33,-0.54 1213.28,1046.53,-0.54 1212.48,1046.93,-0.54 1211.68,1046.53,-0.54 1210.88,1045.33,-0.54"/>
    </edge>
    <edge id=":AC_0" function="internal">
        <lane id=":AC_0_0" index="0" speed="3.65" length="4.67" shape="1432.03,824.19,-0.54 1433.23,824.99,-0.54 1433.63,825.79,-0.54 1433.23,826.59,-0.54 1432.03,827.39,-0.54"/>
    </edge>
    <edge id=":C_0" function="internal">
        <lane id=":C_0_0" index="0" speed="6.51" length="9.03" shape="1201.28,462.39,1.36 1200.93,459.94,1.40 1199.88,458.19,1.44 1198.13,457.14,1.47 1195.68,456.79,1.52"/>
    </edge>
    <edge id=":C_1" function="internal">
        <lane id=":C_1_0" index="0" speed="40.00" length="33.60" shape="1201.28,462.39,1.36 1201.28,428.79,1.52"/>
        <lane id=":C_1_1" index="1" speed="40.00" length="33.60" shape="1204.48,462.39,1.36 1204.48,428.79,1.52"/>
        <lane id=":C_1_2" index="2" speed="40.00" length="33.60" shape="1207.68,462.39,1.36 1207.68,428.79,1.52"/>
        <lane id=":C_1_3" index="3" speed="40.00" length="33.60" shape="1210.88,462.39,1.36 1210.88,428.79,1.52"/>
    </edge>
    <edge id=":C_5" function="internal">
        <lane id=":C_5_0" index="0" speed="11.36" length="5.01" shape="1210.88,462.39,1.36 1211.59,457.43,1.39"/>
    </edge>
    <edge id=":C_24" function="internal">
        <lane id=":C_24_0" index="0" speed="11.36" length="24.66" shape="1211.59,457.43,1.39 1212.03,454.34,1.40 1215.48,448.59,1.44 1221.23,445.14,1.47 1229.28,443.99,1.52"/>
    </edge>
    <edge id=":C_6" function="internal">
        <lane id=":C_6_0" index="0" speed="6.51" length="9.03" shape="1229.28,456.79,1.52 1226.83,457.14,1.47 1225.08,458.19,1.44 1224.03,459.94,1.40 1223.68,462.39,1.36"/>
    </edge>
    <edge id=":C_7" function="internal">
        <lane id=":C_7_0" index="0" speed="40.00" length="33.60" shape="1229.28,456.79,1.52 1195.68,456.79,1.52"/>
        <lane id=":C_7_1" index="1" speed="40.00" length="33.60" shape="1229.28,453.59,1.52 1195.68,453.59,1.52"/>
        <lane id=":C_7_2" index="2" speed="40.00" length="33.60" shape="1229.28,450.39,1.52 1195.68,450.39,1.52"/>
        <lane id=":C_7_3" index="3" speed="40.00" length="33.60" shape="1229.28,447.19,1.52 1195.68,447.19,1.52"/>
    </edge>
    <edge id=":C_11" function="internal">
        <lane id=":C_11_0" index="0" speed="11.36" length="5.01" shape="1229.28,447.19,1.52 1224.32,446.48,1.52"/>
    </edge>
    <edge id=":C_25" function="internal">
        <lane id=":C_25_0" index="0" speed="11.36" length="24.66" shape="1224.32,446.48,1.52 1221.23,446.04,1.52 1215.48,442.59,1.52 1212.03,436.84,1.52 1210.88,428.79,1.52"/>
    </edge>
    <edge id=":C_12" function="internal">
        <lane id=":C_12_0" index="0" speed="6.51" length="9.03" shape="1223.68,428.79,1.52 1224.03,431.24,1.52 1225.08,432.99,1.52 1226.83,434.04,1.52 1229.28,434.39,1.52"/>
    </edge>
    <edge id=":C_13" function="internal">
        <lane id=":C_13_0" index="0" speed="40.00" length="33.60" shape="1223.68,428.79,1.52 1223.68,462.39,1.36"/>
        <lane id=":C_13_1" index="1" speed="40.00" length="33.60" shape="1220.48,428.79,1.52 1220.48,462.39,1.36"/>
        <lane id=":C_13_2" index="2" speed="40.00" length="33.60" shape="1217.28,428.79,1.52 1217.28,462.39,1.36"/>
        <lane id=":C_13_3" index="3" speed="40.00" length="33.60" shape="1214.08,428.79,1.52 1214.08,462.39,1.36"/>
    </edge>
    <edge id=":C_17" function="internal">
        <lane id=":C_17_0" index="0" speed="11.36" length="5.01" shape="1214.08,428.79,1.52 1213.37,433.76,1.52"/>
    </edge>
    <edge id=":C_26" function="internal">
        <lane id=":C_26_0" index="0" speed="11.36" length="24.66" shape="1213.37,433.76,1.52 1212.93,436.84,1.52 1209.48,442.59,1.52 1203.73,446.04,1.52 1195.68,447.19,1.52"/>
    </edge>
    <edge id=":C_18" function="internal">
        <lane id=":C_18_0" index="0" speed="6.51" length="9.03" shape="1195.68,434.39,1.52 1198.13,434.04,1.52 1199.88,432.99,1.52 1200.93,431.24,1.52 1201.28,428.79,1.52"/>
    </edge>
    <edge id=":C_19" function="internal">
        <lane id=":C_19_0" index="0" speed="40.00" length="33.60" shape="1195.68,434.39,1.52 1229.28,434.39,1.52"/>
        <lane id=":C_19_1" index="1" speed="40.00" length="33.60" shape="1195.68,437.59,1.52 1229.28,437.59,1.52"/>
        <lane id=":C_19_2" index="2" speed="40.00" length="33.60" shape="1195.68,440.79,1.52 1229.28,440.79,1.52"/>
        <lane id=":C_19_3" index="3" speed="40.00" length="33.60" shape="1195.68,443.99,1.52 1229.28,443.99,1.52"/>
    </edge>
    <edge id=":C_23" function="internal">
        <lane id=":C_23_0" index="0" speed="11.36" length="5.01" shape="1195.68,443.99,1.52 1200.64,444.70,1.49"/>
    </edge>
    <edge id=":C_27" function="internal">
        <lane id=":C_27_0" index="0" speed="11.36" length="24.66" shape="1200.64,444.70,1.49 1203.73,445.14,1.47 1209.48,448.59,1.44 1212.93,454.34,1.40 1214.08,462.39,1.36"/>
    </edge>
    <edge id=":CA_0" function="internal">
        <lane id=":CA_0_0" index="0" speed="3.65" length="4.67" shape="1373.13,443.99,1.52 1374.33,444.79,1.52 1374.73,445.59,1.52 1374.33,446.39,1.52 1373.13,447.19,1.52"/>
    </edge>
    <edge id=":CB_0" function="internal">
        <lane id=":CB_0_0" index="0" speed="3.65" length="4.67" shape="1210.88,284.95,1.52 1211.68,283.75,1.52 1212.48,283.35,1.52 1213.28,283.75,1.52 1214.08,284.95,1.52"/>
    </edge>
    <edge id=":CC_0" function="internal">
        <lane id=":CC_0_0" index="0" speed="3.65" length="4.67" shape="1051.83,447.19,1.52 1050.63,446.39,1.52 1050.23,445.59,1.52 1050.63,444.79,1.52 1051.83,443.99,1.52"/>
    </edge>
    <edge id=":TL_0" function="internal">
        <lane id=":TL_0_0" index="0" speed="6.51" length="9.03" shape="1201.28,616.64,-0.03 1200.93,614.19,-0.02 1199.88,612.44,-0.01 1198.13,611.39,-0.01 1195.68,611.04"/>
    </edge>
    <edge id=":TL_1" function="internal">
        <lane id=":TL_1_0" index="0" speed="40.00" length="14.40" shape="1201.28,616.64,-0.03 1201.28,602.24,0.04"/>
        <lane id=":TL_1_1" index="1" speed="40.00" length="14.40" shape="1204.48,616.64,-0.03 1204.48,602.24,0.04"/>
        <lane id=":TL_1_2" index="2" speed="40.00" length="14.40" shape="1207.68,616.64,-0.03 1207.68,602.24,0.04"/>
        <lane id=":TL_1_3" index="3" speed="40.00" length="14.40" shape="1210.88,616.64,-0.03 1210.88,602.24,0.04"/>
    </edge>
    <edge id=":TL_5" function="internal">
        <lane id=":TL_5_0" index="0" speed="6.51" length="9.03" shape="1229.28,611.04 1226.83,611.39,-0.01 1225.08,612.44,-0.01 1224.03,614.19,-0.02 1223.68,616.64,-0.03"/>
    </edge>
    <edge id=":TL_6" function="internal">
        <lane id=":TL_6_0" index="0" speed="40.00" length="33.60" shape="1229.28,611.04 1195.68,611.04"/>
        <lane id=":TL_6_1" index="1" speed="40.00" length="33.60" shape="1229.28,607.84 1195.68,607.84"/>
    </edge>
    <edge id=":TL_8" function="internal">
        <lane id=":TL_8_0" index="0" speed="9.51" length="20.48" shape="1229.28,607.84 1221.23,607.49,0.01 1215.48,606.44,0.03 1212.03,604.69,0.03 1210.88,602.24,0.04"/>
    </edge>
    <edge id=":TL_9" function="internal">
        <lane id=":TL_9_0" index="0" speed="40.00" length="14.40" shape="1223.68,602.24,0.04 1223.68,616.64,-0.03"/>
        <lane id=":TL_9_1" index="1" speed="40.00" length="14.40" shape="1220.48,602.24,0.04 1220.48,616.64,-0.03"/>
        <lane id=":TL_9_2" index="2" speed="40.00" length="14.40" shape="1217.28,602.24,0.04 1217.28,616.64,-0.03"/>
    </edge>
    <edge id=":TL_12" function="internal">
        <lane id=":TL_12_0" index="0" speed="9.51" length="1.85" shape="1214.08,602.24,0.04 1213.29,603.91,0.03"/>
    </edge>
    <edge id=":TL_13" function="internal">
        <lane id=":TL_13_0" index="0" speed="9.51" length="18.63" shape="1213.29,603.91,0.03 1212.93,604.69,0.03 1209.48,606.44,0.03 1203.73,607.49,0.01 1195.68,607.84"/>
    </edge>

    <edge id="A2AA" from="A" to="AA" priority="-1">
        <lane id="A2AA_0" index="0" speed="40.00" length="202.75" shape="1195.68,836.99,-0.54 992.93,836.99,-0.54"/>
        <lane id="A2AA_1" index="1" speed="40.00" length="202.75" shape="1195.68,833.79,-0.54 992.93,833.79,-0.54"/>
        <lane id="A2AA_2" index="2" speed="40.00" length="202.75" shape="1195.68,830.59,-0.54 992.93,830.59,-0.54"/>
        <lane id="A2AA_3" index="3" speed="40.00" length="202.75" shape="1195.68,827.39,-0.54 992.93,827.39,-0.54"/>
    </edge>
    <edge id="A2AB" from="A" to="AB" priority="-1">
        <lane id="A2AB_0" index="0" speed="40.00" length="202.75" shape="1223.68,842.59,-0.54 1223.68,1045.33,-0.54"/>
        <lane id="A2AB_1" index="1" speed="40.00" length="202.75" shape="1220.48,842.59,-0.54 1220.48,1045.33,-0.54"/>
        <lane id="A2AB_2" index="2" speed="40.00" length="202.75" shape="1217.28,842.59,-0.54 1217.28,1045.33,-0.54"/>
        <lane id="A2AB_3" index="3" speed="40.00" length="202.75" shape="1214.08,842.59,-0.54 1214.08,1045.33,-0.54"/>
    </edge>
    <edge id="A2AC" from="A" to="AC" priority="-1">
        <lane id="A2AC_0" index="0" speed="40.00" length="202.75" shape="1229.28,814.59,-0.54 1432.03,814.59,-0.54"/>
        <lane id="A2AC_1" index="1" speed="40.00" length="202.75" shape="1229.28,817.79,-0.54 1432.03,817.79,-0.54"/>
        <lane id="A2AC_2" index="2" speed="40.00" length="202.75" shape="1229.28,820.99,-0.54 1432.03,820.99,-0.54"/>
        <lane id="A2AC_3" index="3" speed="40.00" length="202.75" shape="1229.28,824.19,-0.54 1432.03,824.19,-0.54"/>
    </edge>
    <edge id="A2TL" from="A" to="TL" priority="-1">
        <lane id="A2TL_0" index="0" speed="40.00" length="192.35" shape="1201.28,808.99,-0.49 1201.28,616.64,-0.03"/>
        <lane id="A2TL_1" index="1" speed="40.00" length="192.35" shape="1204.48,808.99,-0.49 1204.48,616.64,-0.03"/>
        <lane id="A2TL_2" index="2" speed="40.00" length="192.35" shape="1207.68,808.99,-0.49 1207.68,616.64,-0.03"/>
        <lane id="A2TL_3" index="3" speed="40.00" length="192.35" shape="1210.88,808.99,-0.49 1210.88,616.64,-0.03"/>
    </edge>
    <edge id="AA2A" from="AA" to="A" priority="-1">
        <lane id="AA2A_0" index="0" speed="40.00" length="202.75" shape="992.93,814.59,-0.54 1195.68,814.59,-0.54"/>
        <lane id="AA2A_1" index="1" speed="40.00" length="202.75" shape="992.93,817.79,-0.54 1195.68,817.79,-0.54"/>
        <lane id="AA2A_2" index="2" speed="40.00" length="202.75" shape="992.93,820.99,-0.54 1195.68,820.99,-0.54"/>
        <lane id="AA2A_3" index="3" speed="40.00" length="202.75" shape="992.93,824.19,-0.54 1195.68,824.19,-0.54"/>
    </edge>
    <edge id="AB2A" from="AB" to="A" priority="-1">
        <lane id="AB2A_0" index="0" speed="40.00" length="202.75" shape="1201.28,1045.33,-0.54 1201.28,842.59,-0.54"/>
        <lane id="AB2A_1" index="1" speed="40.00" length="202.75" shape="1204.48,1045.33,-0.54 1204.48,842.59,-0.54"/>
        <lane id="AB2A_2" index="2" speed="40.00" length="202.75" shape="1207.68,1045.33,-0.54 1207.68,842.59,-0.54"/>
        <lane id="AB2A_3" index="3" speed="40.00" length="202.75" shape="1210.88,1045.33,-0.54 1210.88,842.59,-0.54"/>
    </edge>
    <edge id="AC2A" from="AC" to="A" priority="-1">
        <lane id="AC2A_0" index="0" speed="40.00" length="202.75" shape="1432.03,836.99,-0.54 1229.28,836.99,-0.54"/>
        <lane id="AC2A_1" index="1" speed="40.00" length="202.75" shape="1432.03,833.79,-0.54 1229.28,833.79,-0.54"/>
        <lane id="AC2A_2" index="2" speed="40.00" length="202.75" shape="1432.03,830.59,-0.54 1229.28,830.59,-0.54"/>
        <lane id="AC2A_3" index="3" speed="40.00" length="202.75" shape="1432.03,827.39,-0.54 1229.28,827.39,-0.54"/>
    </edge>
    <edge id="B2BA" from="B" to="BA" priority="-1">
        <lane id="B2BA_0" index="0" speed="40.00" length="528.30" shape="1753.48,614.14 1753.48,1142.44"/>
        <lane id="B2BA_1" index="1" speed="40.00" length="528.30" shape="1750.28,614.14 1750.28,1142.44"/>
    </edge>
    <edge id="B2BB" from="B" to="BB" priority="-1">
        <lane id="B2BB_0" index="0" speed="40.00" length="528.30" shape="1756.58,601.44 2284.87,601.44"/>
        <lane id="B2BB_1" index="1" speed="40.00" length="528.30" shape="1756.58,604.64 2284.87,604.64"/>
    </edge>
    <edge id="B2BC" from="B" to="BC" priority="-1">
        <lane id="B2BC_0" index="0" speed="40.00" length="528.30" shape="1743.88,598.34 1743.88,70.04"/>
        <lane id="B2BC_1" index="1" speed="40.00" length="528.30" shape="1747.08,598.34 1747.08,70.04"/>
    </edge>
    <edge id="B2TL" from="B" to="TL" priority="-1">
        <lane id="B2TL_0" index="0" speed="40.00" length="511.50" shape="1740.78,611.04 1229.28,611.04"/>
        <lane id="B2TL_1" index="1" speed="40.00" length="511.50" shape="1740.78,607.84 1229.28,607.84"/>
    </edge>
    <edge id="C2CA" from="C" to="CA" priority="-1">
        <lane id="C2CA_0" index="0" speed="40.00" length="143.85" shape="1229.28,434.39,1.52 1373.13,434.39,1.52"/>
        <lane id="C2CA_1" index="1" speed="40.00" length="143.85" shape="1229.28,437.59,1.52 1373.13,437.59,1.52"/>
        <lane id="C2CA_2" index="2" speed="40.00" length="143.85" shape="1229.28,440.79,1.52 1373.13,440.79,1.52"/>
        <lane id="C2CA_3" index="3" speed="40.00" length="143.85" shape="1229.28,443.99,1.52 1373.13,443.99,1.52"/>
    </edge>
    <edge id="C2CB" from="C" to="CB" priority="-1">
        <lane id="C2CB_0" index="0" speed="40.00" length="143.85" shape="1201.28,428.79,1.52 1201.28,284.95,1.52"/>
        <lane id="C2CB_1" index="1" speed="40.00" length="143.85" shape="1204.48,428.79,1.52 1204.48,284.95,1.52"/>
        <lane id="C2CB_2" index="2" speed="40.00" length="143.85" shape="1207.68,428.79,1.52 1207.68,284.95,1.52"/>
        <lane id="C2CB_3" index="3" speed="40.00" length="143.85" shape="1210.88,428.79,1.52 1210.88,284.95,1.52"/>
    </edge>
    <edge id="C2CC" from="C" to="CC" priority="-1">
        <lane id="C2CC_0" index="0" speed="40.00" length="143.85" shape="1195.68,456.79,1.52 1051.83,456.79,1.52"/>
        <lane id="C2CC_1" index="1" speed="40.00" length="143.85" shape="1195.68,453.59,1.52 1051.83,453.59,1.52"/>
        <lane id="C2CC_2" index="2" speed="40.00" length="143.85" shape="1195.68,450.39,1.52 1051.83,450.39,1.52"/>
        <lane id="C2CC_3" index="3" speed="40.00" length="143.85" shape="1195.68,447.19,1.52 1051.83,447.19,1.52"/>
    </edge>
    <edge id="C2TL" from="C" to="TL" priority="-1">
        <lane id="C2TL_0" index="0" speed="40.00" length="139.85" shape="1223.68,462.39,1.36 1223.68,602.24,0.04"/>
        <lane id="C2TL_1" index="1" speed="40.00" length="139.85" shape="1220.48,462.39,1.36 1220.48,602.24,0.04"/>
        <lane id="C2TL_2" index="2" speed="40.00" length="139.85" shape="1217.28,462.39,1.36 1217.28,602.24,0.04"/>
        <lane id="C2TL_3" index="3" speed="40.00" length="139.85" shape="1214.08,462.39,1.36 1214.08,602.24,0.04"/>
    </edge>
    <edge id="CA2C" from="CA" to="C" priority="-1">
        <lane id="CA2C_0" index="0" speed="40.00" length="143.85" shape="1373.13,456.79,1.52 1229.28,456.79,1.52"/>
        <lane id="CA2C_1" index="1" speed="40.00" length="143.85" shape="1373.13,453.59,1.52 1229.28,453.59,1.52"/>
        <lane id="CA2C_2" index="2" speed="40.00" length="143.85" shape="1373.13,450.39,1.52 1229.28,450.39,1.52"/>
        <lane id="CA2C_3" index="3" speed="40.00" length="143.85" shape="1373.13,447.19,1.52 1229.28,447.19,1.52"/>
    </edge>
    <edge id="CB2C" from="CB" to="C" priority="-1">
        <lane id="CB2C_0" index="0" speed="40.00" length="143.85" shape="1223.68,284.95,1.52 1223.68,428.79,1.52"/>
        <lane id="CB2C_1" index="1" speed="40.00" length="143.85" shape="1220.48,284.95,1.52 1220.48,428.79,1.52"/>
        <lane id="CB2C_2" index="2" speed="40.00" length="143.85" shape="1217.28,284.95,1.52 1217.28,428.79,1.52"/>
        <lane id="CB2C_3" index="3" speed="40.00" length="143.85" shape="1214.08,284.95,1.52 1214.08,428.79,1.52"/>
    </edge>
    <edge id="CC2C" from="CC" to="C" priority="-1">
        <lane id="CC2C_0" index="0" speed="40.00" length="143.85" shape="1051.83,434.39,1.52 1195.68,434.39,1.52"/>
        <lane id="CC2C_1" index="1" speed="40.00" length="143.85" shape="1051.83,437.59,1.52 1195.68,437.59,1.52"/>
        <lane id="CC2C_2" index="2" speed="40.00" length="143.85" shape="1051.83,440.79,1.52 1195.68,440.79,1.52"/>
        <lane id="CC2C_3" index="3" speed="40.00" length="143.85" shape="1051.83,443.99,1.52 1195.68,443.99,1.52"/>
    </edge>
    <edge id="DA2D" from="DA" to="D" priority="-1">
        <lane id="DA2D_0" index="0" speed="40.00" length="598.34" shape="611.04,0.00 611.04,598.34"/>
        <lane id="DA2D_1" index="1" speed="40.00" length="598.34" shape="607.84,0.00 607.84,598.34"/>
    </edge>
    <edge id="DB2D" from="DB" to="D" priority="-1">
        <lane id="DB2D_0" index="0" speed="40.00" length="598.34" shape="0.00,601.44 598.34,601.44"/>
        <lane id="DB2D_1" index="1" speed="40.00" length="598.34" shape="0.00,604.64 598.34,604.64"/>
    </edge>
    <edge id="DC2D" from="DC" to="D" priority="-1">
        <lane id="DC2D_0" index="0" speed="40.00" length="598.34" shape="601.44,1212.48 601.44,614.14"/>
        <lane id="DC2D_1" index="1" speed="40.00" length="598.34" shape="604.64,1212.48 604.64,614.14"/>
    </edge>
    <edge id="TL2A" from="TL" to="A" priority="-1">
        <lane id="TL2A_0" index="0" speed="40.00" length="192.35" shape="1223.68,616.64,-0.03 1223.68,808.99,-0.49"/>
        <lane id="TL2A_1" index="1" speed="40.00" length="192.35" shape="1220.48,616.64,-0.03 1220.48,808.99,-0.49"/>
        <lane id="TL2A_2" index="2" speed="40.00" length="192.35" shape="1217.28,616.64,-0.03 1217.28,808.99,-0.49"/>
        <lane id="TL2A_3" index="3" speed="40.00" length="192.35" shape="1214.08,616.64,-0.03 1214.08,808.99,-0.49"/>
    </edge>
    <edge id="TL2C" from="TL" to="C" priority="-1">
        <lane id="TL2C_0" index="0" speed="40.00" length="139.85" shape="1201.28,602.24,0.04 1201.28,462.39,1.36"/>
        <lane id="TL2C_1" index="1" speed="40.00" length="139.85" shape="1204.48,602.24,0.04 1204.48,462.39,1.36"/>
        <lane id="TL2C_2" index="2" speed="40.00" length="139.85" shape="1207.68,602.24,0.04 1207.68,462.39,1.36"/>
        <lane id="TL2C_3" index="3" speed="40.00" length="139.85" shape="1210.88,602.24,0.04 1210.88,462.39,1.36"/>
    </edge>
    <edge id="TL2D" from="TL" to="D" priority="-1">
        <lane id="TL2D_0" index="0" speed="40.00" length="581.54" shape="1195.68,611.04 614.14,611.04"/>
        <lane id="TL2D_1" index="1" speed="40.00" length="581.54" shape="1195.68,607.84 614.14,607.84"/>
    </edge>

    <tlLogic id="A" type="static" programID="0" offset="0">
        <phase duration="37" state="GGGGGgrrrrrrGGGGGgrrrrrr"/>
        <phase duration="8"  state="yyyyyyrrrrrryyyyyyrrrrrr"/>
        <phase duration="37" state="rrrrrrGGGGGgrrrrrrGGGGGg"/>
        <phase duration="8"  state="rrrrrryyyyyyrrrrrryyyyyy"/>
    </tlLogic>
    <tlLogic id="AA" type="static" programID="0" offset="0">
        <phase duration="77" state="G"/>
        <phase duration="8"  state="y"/>
        <phase duration="5"  state="r"/>
    </tlLogic>
    <tlLogic id="AB" type="static" programID="0" offset="0">
        <phase duration="77" state="G"/>
        <phase duration="8"  state="y"/>
        <phase duration="5"  state="r"/>
    </tlLogic>
    <tlLogic id="AC" type="static" programID="0" offset="0">
        <phase duration="77" state="G"/>
        <phase duration="8"  state="y"/>
        <phase duration="5"  state="r"/>
    </tlLogic>
    <tlLogic id="C" type="static" programID="0" offset="0">
        <phase duration="37" state="GGGGGgrrrrrrGGGGGgrrrrrr"/>
        <phase duration="8"  state="yyyyyyrrrrrryyyyyyrrrrrr"/>
        <phase duration="37" state="rrrrrrGGGGGgrrrrrrGGGGGg"/>
        <phase duration="8"  state="rrrrrryyyyyyrrrrrryyyyyy"/>
    </tlLogic>
    <tlLogic id="CA" type="static" programID="0" offset="0">
        <phase duration="77" state="G"/>
        <phase duration="8"  state="y"/>
        <phase duration="5"  state="r"/>
    </tlLogic>
    <tlLogic id="CB" type="static" programID="0" offset="0">
        <phase duration="77" state="G"/>
        <phase duration="8"  state="y"/>
        <phase duration="5"  state="r"/>
    </tlLogic>
    <tlLogic id="CC" type="static" programID="0" offset="0">
        <phase duration="77" state="G"/>
        <phase duration="8"  state="y"/>
        <phase duration="5"  state="r"/>
    </tlLogic>
    <tlLogic id="TL" type="static" programID="0" offset="0">
        <phase duration="30" state="GGGGGsrrrGGGr"/>
        <phase duration="8"  state="yyyyysrrryyyr"/>
        <phase duration="6"  state="rrrrrsrrrGGGG"/>
        <phase duration="8"  state="rrrrrsrrryyyy"/>
        <phase duration="30" state="srrrrGGGGrrrr"/>
        <phase duration="8"  state="srrrryyyyrrrr"/>
    </tlLogic>

    <junction id="A" type="traffic_light" x="1212.48" y="825.79" z="-0.54" incLanes="AB2A_0 AB2A_1 AB2A_2 AB2A_3 AC2A_0 AC2A_1 AC2A_2 AC2A_3 TL2A_0 TL2A_1 TL2A_2 TL2A_3 AA2A_0 AA2A_1 AA2A_2 AA2A_3" intLanes=":A_0_0 :A_1_0 :A_1_1 :A_1_2 :A_1_3 :A_24_0 :A_6_0 :A_7_0 :A_7_1 :A_7_2 :A_7_3 :A_25_0 :A_12_0 :A_13_0 :A_13_1 :A_13_2 :A_13_3 :A_26_0 :A_18_0 :A_19_0 :A_19_1 :A_19_2 :A_19_3 :A_27_0" shape="1199.68,842.59,-0.54 1225.28,842.59,-0.54 1225.72,840.36,-0.54 1226.28,839.59,-0.54 1227.06,839.03,-0.54 1228.06,838.70,-0.54 1229.28,838.59,-0.54 1229.28,812.99,-0.54 1227.06,812.54,-0.54 1226.28,811.99,-0.54 1225.72,811.21,-0.54 1225.39,810.21,-0.54 1225.28,808.99,-0.54 1199.68,808.99,-0.54 1199.24,811.21,-0.54 1198.68,811.99,-0.54 1197.90,812.54,-0.54 1196.90,812.88,-0.54 1195.68,812.99,-0.54 1195.68,838.59,-0.54 1197.90,839.03,-0.54 1198.68,839.59,-0.54 1199.24,840.36,-0.54 1199.57,841.36,-0.54">
        <request index="0"  response="000000000000000000000000" foes="000000000000011110000000" cont="0"/>
        <request index="1"  response="100000000000100000000000" foes="111111100000111110000000" cont="0"/>
        <request index="2"  response="100000000000100000000000" foes="111111100000111110000000" cont="0"/>
        <request index="3"  response="100000000000100000000000" foes="111111100000111110000000" cont="0"/>
        <request index="4"  response="100000000000100000000000" foes="111111100000111110000000" cont="0"/>
        <request index="5"  response="100000011110100000000000" foes="111110011110111110000000" cont="1"/>
        <request index="6"  response="000000011110000000000000" foes="000000011110000000000000" cont="0"/>
        <request index="7"  response="000000111110000000111111" foes="100000111110000000111111" cont="0"/>
        <request index="8"  response="000000111110000000111111" foes="100000111110000000111111" cont="0"/>
        <request index="9"  response="000000111110000000111111" foes="100000111110000000111111" cont="0"/>
        <request index="10" response="000000111110000000111111" foes="100000111110000000111111" cont="0"/>
        <request index="11" response="011110111110000000111110" foes="011110111110000000111110" cont="1"/>
        <request index="12" response="000000000000000000000000" foes="011110000000000000000000" cont="0"/>
        <request index="13" response="100000000000100000000000" foes="111110000000111111100000" cont="0"/>
        <request index="14" response="100000000000100000000000" foes="111110000000111111100000" cont="0"/>
        <request index="15" response="100000000000100000000000" foes="111110000000111111100000" cont="0"/>
        <request index="16" response="100000000000100000000000" foes="111110000000111111100000" cont="0"/>
        <request index="17" response="100000000000100000011110" foes="111110000000111110011110" cont="1"/>
        <request index="18" response="000000000000000000011110" foes="000000000000000000011110" cont="0"/>
        <request index="19" response="000000111111000000111110" foes="000000111111100000111110" cont="0"/>