<?xml version="1.0" encoding="UTF-8"?>

<!-- generated on 2022-10-11 17:11:05 by Eclipse SUMO netconvert Version 1.14.1
<configuration xmlns:xsi="http://www.w3.org/2001/XMLSchema-instance" xsi:noNamespaceSchemaLocation="http://sumo.dlr.de/xsd/netconvertConfiguration.xsd">

    <input>
        <node-files value="../data/salt-lake-city/nodes.nod.xml"/>
        <edge-files value="../data/salt-lake-city/edges.edg.xml"/>
        <connection-files value="../data/salt-lake-city/connections.con.xml"/>
    </input>

    <output>
        <output-file value="../data/salt-lake-city/sumo/net/290.net.xml"/>
    </output>

    <tls_building>
        <tls.minor-left.max-speed value="1"/>
    </tls_building>

    <report>
        <verbose value="true"/>
    </report>

</configuration>
-->

<net version="1.9" junctionCornerDetail="5" limitTurnSpeed="5.50" xmlns:xsi="http://www.w3.org/2001/XMLSchema-instance" xsi:noNamespaceSchemaLocation="http://sumo.dlr.de/xsd/net_file.xsd">

    <location netOffset="641.14,762.61" convBoundary="0.00,0.00,1866.49,1627.81" origBoundary="-641.14,-762.61,1225.35,865.20" projParameter="!"/>

    <edge id=":A_0" function="internal">
        <lane id=":A_0_0" index="0" speed="7.33" length="11.73" shape="629.94,1215.21 629.39,1212.76 627.74,1211.01 624.99,1209.96 621.14,1209.61"/>
    </edge>
    <edge id=":A_1" function="internal">
        <lane id=":A_1_0" index="0" speed="40.00" length="40.13" shape="629.94,1215.21 626.74,1175.21"/>
        <lane id=":A_1_1" index="1" speed="40.00" length="40.13" shape="633.14,1215.21 629.94,1175.21"/>
        <lane id=":A_1_2" index="2" speed="40.00" length="40.13" shape="636.34,1215.21 633.14,1175.21"/>
        <lane id=":A_1_3" index="3" speed="40.00" length="40.13" shape="639.54,1215.21 636.34,1175.21"/>
    </edge>
    <edge id=":A_5" function="internal">
        <lane id=":A_5_0" index="0" speed="12.28" length="12.53" shape="639.54,1215.21 640.89,1205.76 642.43,1203.20"/>
    </edge>
    <edge id=":A_24" function="internal">
        <lane id=":A_24_0" index="0" speed="12.28" length="22.30" shape="642.43,1203.20 644.94,1199.01 651.69,1194.96 661.14,1193.61"/>
    </edge>
    <edge id=":A_6" function="internal">
        <lane id=":A_6_0" index="0" speed="7.33" length="11.73" shape="661.14,1206.41 658.69,1206.96 656.94,1208.61 655.89,1211.36 655.54,1215.21"/>
    </edge>
    <edge id=":A_7" function="internal">
        <lane id=":A_7_0" index="0" speed="40.00" length="40.13" shape="661.14,1206.41 621.14,1209.61"/>
        <lane id=":A_7_1" index="1" speed="40.00" length="40.13" shape="661.14,1203.21 621.14,1206.41"/>
        <lane id=":A_7_2" index="2" speed="40.00" length="40.13" shape="661.14,1200.01 621.14,1203.21"/>
        <lane id=":A_7_3" index="3" speed="40.00" length="40.13" shape="661.14,1196.81 621.14,1200.01"/>
    </edge>
    <edge id=":A_11" function="internal">
        <lane id=":A_11_0" index="0" speed="12.28" length="12.53" shape="661.14,1196.81 651.69,1195.46 649.13,1193.92"/>
    </edge>
    <edge id=":A_25" function="internal">
        <lane id=":A_25_0" index="0" speed="12.28" length="22.30" shape="649.13,1193.92 644.94,1191.41 640.89,1184.66 639.54,1175.21"/>
    </edge>
    <edge id=":A_12" function="internal">
        <lane id=":A_12_0" index="0" speed="7.33" length="11.73" shape="652.34,1175.21 652.89,1177.66 654.54,1179.41 657.29,1180.46 661.14,1180.81"/>
    </edge>
    <edge id=":A_13" function="internal">
        <lane id=":A_13_0" index="0" speed="40.00" length="40.13" shape="652.34,1175.21 655.54,1215.21"/>
        <lane id=":A_13_1" index="1" speed="40.00" length="40.13" shape="649.14,1175.21 652.34,1215.21"/>
        <lane id=":A_13_2" index="2" speed="40.00" length="40.13" shape="645.94,1175.21 649.14,1215.21"/>
        <lane id=":A_13_3" index="3" speed="40.00" length="40.13" shape="642.74,1175.21 645.94,1215.21"/>
    </edge>
    <edge id=":A_17" function="internal">
        <lane id=":A_17_0" index="0" speed="12.28" length="12.53" shape="642.74,1175.21 641.39,1184.66 639.85,1187.22"/>
    </edge>
    <edge id=":A_26" function="internal">
        <lane id=":A_26_0" index="0" speed="12.28" length="22.30" shape="639.85,1187.22 637.34,1191.41 630.59,1195.46 621.14,1196.81"/>
    </edge>
    <edge id=":A_18" function="internal">
        <lane id=":A_18_0" index="0" speed="7.33" length="11.73" shape="621.14,1184.01 623.59,1183.46 625.34,1181.81 626.39,1179.06 626.74,1175.21"/>
    </edge>
    <edge id=":A_19" function="internal">
        <lane id=":A_19_0" index="0" speed="40.00" length="40.13" shape="621.14,1184.01 661.14,1180.81"/>
        <lane id=":A_19_1" index="1" speed="40.00" length="40.13" shape="621.14,1187.21 661.14,1184.01"/>
        <lane id=":A_19_2" index="2" speed="40.00" length="40.13" shape="621.14,1190.41 661.14,1187.21"/>
        <lane id=":A_19_3" index="3" speed="40.00" length="40.13" shape="621.14,1193.61 661.14,1190.41"/>
    </edge>
    <edge id=":A_23" function="internal">
        <lane id=":A_23_0" index="0" speed="12.28" length="12.53" shape="621.14,1193.61 630.59,1194.96 633.15,1196.50"/>
    </edge>
    <edge id=":A_27" function="internal">
        <lane id=":A_27_0" index="0" speed="12.28" length="22.30" shape="633.15,1196.50 637.34,1199.01 641.39,1205.76 642.74,1215.21"/>
    </edge>
    <edge id=":AA_0" function="internal">
        <lane id=":AA_0_0" index="0" speed="3.65" length="4.67" shape="208.54,1196.81 207.34,1196.01 206.94,1195.21 207.34,1194.41 208.54,1193.61"/>
    </edge>
    <edge id=":AB_0" function="internal">
        <lane id=":AB_0_0" index="0" speed="3.65" length="4.67" shape="642.74,1627.81 641.94,1629.01 641.14,1629.41 640.34,1629.01 639.54,1627.81"/>
    </edge>
    <edge id=":AC_0" function="internal">
        <lane id=":AC_0_0" index="0" speed="3.65" length="4.67" shape="1073.74,1193.61 1074.94,1194.41 1075.34,1195.21 1074.94,1196.01 1073.74,1196.81"/>
    </edge>
    <edge id=":B_0" function="internal">
        <lane id=":B_0_0" index="0" speed="7.33" length="11.73" shape="1249.02,776.21 1248.47,773.76 1246.82,772.01 1244.07,770.96 1240.22,770.61"/>
    </edge>
    <edge id=":B_1" function="internal">
        <lane id=":B_1_0" index="0" speed="40.00" length="27.43" shape="1249.02,776.21 1248.52,769.67 1247.42,764.00 1246.32,757.63 1245.82,749.01"/>
        <lane id=":B_1_1" index="1" speed="40.00" length="27.43" shape="1252.22,776.21 1251.72,769.67 1250.62,764.00 1249.52,757.63 1249.02,749.01"/>
    </edge>
    <edge id=":B_3" function="internal">
        <lane id=":B_3_0" index="0" speed="10.36" length="10.84" shape="1252.22,776.21 1253.17,769.56 1255.29,766.02"/>
    </edge>
    <edge id=":B_16" function="internal">
        <lane id=":B_16_0" index="0" speed="10.36" length="13.67" shape="1255.29,766.02 1256.02,764.81 1260.77,761.96 1267.42,761.01"/>
    </edge>
    <edge id=":B_4" function="internal">
        <lane id=":B_4_0" index="0" speed="7.33" length="11.73" shape="1267.42,767.41 1264.97,767.96 1263.22,769.61 1262.17,772.36 1261.82,776.21"/>
    </edge>
    <edge id=":B_5" function="internal">
        <lane id=":B_5_0" index="0" speed="40.00" length="27.43" shape="1267.42,767.41 1260.87,767.91 1255.20,769.01 1248.84,770.11 1240.22,770.61"/>
        <lane id=":B_5_1" index="1" speed="40.00" length="27.43" shape="1267.42,764.21 1260.87,764.71 1255.20,765.81 1248.84,766.91 1240.22,767.41"/>
    </edge>
    <edge id=":B_7" function="internal">
        <lane id=":B_7_0" index="0" speed="10.36" length="10.84" shape="1267.42,764.21 1260.77,763.26 1257.23,761.14"/>
    </edge>
    <edge id=":B_17" function="internal">
        <lane id=":B_17_0" index="0" speed="10.36" length="13.67" shape="1257.23,761.14 1256.02,760.41 1253.17,755.66 1252.22,749.01"/>
    </edge>
    <edge id=":B_8" function="internal">
        <lane id=":B_8_0" index="0" speed="7.33" length="11.73" shape="1258.62,749.01 1259.17,751.46 1260.82,753.21 1263.57,754.26 1267.42,754.61"/>
    </edge>
    <edge id=":B_9" function="internal">
        <lane id=":B_9_0" index="0" speed="40.00" length="27.43" shape="1258.62,749.01 1259.12,755.55 1260.22,761.23 1261.32,767.59 1261.82,776.21"/>
        <lane id=":B_9_1" index="1" speed="40.00" length="27.43" shape="1255.42,749.01 1255.92,755.55 1257.02,761.23 1258.12,767.59 1258.62,776.21"/>
    </edge>
    <edge id=":B_11" function="internal">
        <lane id=":B_11_0" index="0" speed="10.36" length="10.84" shape="1255.42,749.01 1254.47,755.66 1252.34,759.20"/>
    </edge>
    <edge id=":B_18" function="internal">
        <lane id=":B_18_0" index="0" speed="10.36" length="13.67" shape="1252.34,759.20 1251.62,760.41 1246.87,763.26 1240.22,764.21"/>
    </edge>
    <edge id=":B_12" function="internal">
        <lane id=":B_12_0" index="0" speed="7.33" length="11.73" shape="1240.22,757.81 1242.67,757.26 1244.42,755.61 1245.47,752.86 1245.82,749.01"/>
    </edge>
    <edge id=":B_13" function="internal">
        <lane id=":B_13_0" index="0" speed="40.00" length="27.43" shape="1240.22,757.81 1246.76,757.31 1252.43,756.21 1258.80,755.11 1267.42,754.61"/>
        <lane id=":B_13_1" index="1" speed="40.00" length="27.43" shape="1240.22,761.01 1246.76,760.51 1252.43,759.41 1258.80,758.31 1267.42,757.81"/>
    </edge>
    <edge id=":B_15" function="internal">
        <lane id=":B_15_0" index="0" speed="10.36" length="10.84" shape="1240.22,761.01 1246.87,761.96 1250.40,764.08"/>
    </edge>
    <edge id=":B_19" function="internal">
        <lane id=":B_19_0" index="0" speed="10.36" length="13.67" shape="1250.40,764.08 1251.62,764.81 1254.47,769.56 1255.42,776.21"/>
    </edge>
    <edge id=":BA_0" function="internal">
        <lane id=":BA_0_0" index="0" speed="3.65" length="4.67" shape="1255.42,1375.29 1254.62,1376.49 1253.82,1376.89 1253.02,1376.49 1252.22,1375.29"/>
    </edge>
    <edge id=":BB_0" function="internal">
        <lane id=":BB_0_0" index="0" speed="3.65" length="4.67" shape="1866.49,761.01 1867.69,761.81 1868.09,762.61 1867.69,763.41 1866.49,764.21"/>
    </edge>
    <edge id=":BC_0" function="internal">
        <lane id=":BC_0_0" index="0" speed="3.65" length="4.67" shape="1252.22,149.93 1253.02,148.73 1253.82,148.33 1254.62,148.73 1255.42,149.93"/>
    </edge>
    <edge id=":C_0" function="internal">
        <lane id=":C_0_0" index="0" speed="6.51" length="9.03" shape="629.94,398.11 629.59,395.66 628.54,393.91 626.79,392.86 624.34,392.51"/>
    </edge>
    <edge id=":C_1" function="internal">
        <lane id=":C_1_0" index="0" speed="40.00" length="33.60" shape="629.94,398.11 629.94,364.51"/>
        <lane id=":C_1_1" index="1" speed="40.00" length="33.60" shape="633.14,398.11 633.14,364.51"/>
        <lane id=":C_1_2" index="2" speed="40.00" length="33.60" shape="636.34,398.11 636.34,364.51"/>
        <lane id=":C_1_3" index="3" speed="40.00" length="33.60" shape="639.54,398.11 639.54,364.51"/>
    </edge>
    <edge id=":C_5" function="internal">
        <lane id=":C_5_0" index="0" speed="11.36" length="5.01" shape="639.54,398.11 640.25,393.14"/>
    </edge>
    <edge id=":C_24" function="internal">
        <lane id=":C_24_0" index="0" speed="11.36" length="24.66" shape="640.25,393.14 640.69,390.06 644.14,384.31 649.89,380.86 657.94,379.71"/>
    </edge>
    <edge id=":C_6" function="internal">
        <lane id=":C_6_0" index="0" speed="6.51" length="9.03" shape="657.94,392.51 655.49,392.86 653.74,393.91 652.69,395.66 652.34,398.11"/>
    </edge>
    <edge id=":C_7" function="internal">
        <lane id=":C_7_0" index="0" speed="40.00" length="33.60" shape="657.94,392.51 624.34,392.51"/>
        <lane id=":C_7_1" index="1" speed="40.00" length="33.60" shape="657.94,389.31 624.34,389.31"/>
        <lane id=":C_7_2" index="2" speed="40.00" length="33.60" shape="657.94,386.11 624.34,386.11"/>
        <lane id=":C_7_3" index="3" speed="40.00" length="33.60" shape="657.94,382.91 624.34,382.91"/>
    </edge>
    <edge id=":C_11" function="internal">
        <lane id=":C_11_0" index="0" speed="11.36" length="5.01" shape="657.94,382.91 652.98,382.20"/>
    </edge>
    <edge id=":C_25" function="internal">
        <lane id=":C_25_0" index="0" speed="11.36" length="24.66" shape="652.98,382.20 649.89,381.76 644.14,378.31 640.69,372.56 639.54,364.51"/>
    </edge>
    <edge id=":C_12" function="internal">
        <lane id=":C_12_0" index="0" speed="6.51" length="9.03" shape="652.34,364.51 652.69,366.96 653.74,368.71 655.49,369.76 657.94,370.11"/>
    </edge>
    <edge id=":C_13" function="internal">
        <lane id=":C_13_0" index="0" speed="40.00" length="33.60" shape="652.34,364.51 652.34,398.11"/>
        <lane id=":C_13_1" index="1" speed="40.00" length="33.60" shape="649.14,364.51 649.14,398.11"/>
        <lane id=":C_13_2" index="2" speed="40.00" length="33.60" shape="645.94,364.51 645.94,398.11"/>
        <lane id=":C_13_3" index="3" speed="40.00" length="33.60" shape="642.74,364.51 642.74,398.11"/>
    </edge>
    <edge id=":C_17" function="internal">
        <lane id=":C_17_0" index="0" speed="11.36" length="5.01" shape="642.74,364.51 642.03,369.47"/>
    </edge>
    <edge id=":C_26" function="internal">
        <lane id=":C_26_0" index="0" speed="11.36" length="24.66" shape="642.03,369.47 641.59,372.56 638.14,378.31 632.39,381.76 624.34,382.91"/>
    </edge>
    <edge id=":C_18" function="internal">
        <lane id=":C_18_0" index="0" speed="6.51" length="9.03" shape="624.34,370.11 626.79,369.76 628.54,368.71 629.59,366.96 629.94,364.51"/>
    </edge>
    <edge id=":C_19" function="internal">
        <lane id=":C_19_0" index="0" speed="40.00" length="33.60" shape="624.34,370.11 657.94,370.11"/>
        <lane id=":C_19_1" index="1" speed="40.00" length="33.60" shape="624.34,373.31 657.94,373.31"/>
        <lane id=":C_19_2" index="2" speed="40.00" length="33.60" shape="624.34,376.51 657.94,376.51"/>
        <lane id=":C_19_3" index="3" speed="40.00" length="33.60" shape="624.34,379.71 657.94,379.71"/>
    </edge>
    <edge id=":C_23" function="internal">
        <lane id=":C_23_0" index="0" speed="11.36" length="5.01" shape="624.34,379.71 629.30,380.41"/>
    </edge>
    <edge id=":C_27" function="internal">
        <lane id=":C_27_0" index="0" speed="11.36" length="24.66" shape="629.30,380.41 632.39,380.86 638.14,384.31 641.59,390.06 642.74,398.11"/>
    </edge>
    <edge id=":CA_0" function="internal">
        <lane id=":CA_0_0" index="0" speed="3.65" length="4.67" shape="1022.45,379.71 1023.65,380.51 1024.05,381.31 1023.65,382.11 1022.45,382.91"/>
    </edge>
    <edge id=":CB_0" function="internal">
        <lane id=":CB_0_0" index="0" speed="3.65" length="4.67" shape="639.54,0.00 640.34,-1.20 641.14,-1.60 641.94,-1.20 642.74,0.00"/>
    </edge>
    <edge id=":CC_0" function="internal">
        <lane id=":CC_0_0" index="0" speed="3.65" length="4.67" shape="259.83,382.91 258.63,382.11 258.23,381.31 258.63,380.51 259.83,379.71"/>
    </edge>
    <edge id=":D_0" function="internal">
        <lane id=":D_0_0" index="0" speed="6.51" length="9.03" shape="315.77,773.01 315.42,770.56 314.37,768.81 312.62,767.76 310.17,767.41"/>
    </edge>
    <edge id=":D_1" function="internal">
        <lane id=":D_1_0" index="0" speed="40.00" length="20.80" shape="315.77,773.01 315.77,752.21"/>
        <lane id=":D_1_1" index="1" speed="40.00" length="20.80" shape="318.97,773.01 318.97,752.21"/>
    </edge>
    <edge id=":D_3" function="internal">
        <lane id=":D_3_0" index="0" speed="9.26" length="5.01" shape="318.97,773.01 319.68,768.05"/>
    </edge>
    <edge id=":D_16" function="internal">
        <lane id=":D_16_0" index="0" speed="9.26" length="14.34" shape="319.68,768.05 319.72,767.76 321.97,764.01 325.72,761.76 330.97,761.01"/>
    </edge>
    <edge id=":D_4" function="internal">
        <lane id=":D_4_0" index="0" speed="6.51" length="9.03" shape="330.97,767.41 328.52,767.76 326.77,768.81 325.72,770.56 325.37,773.01"/>
    </edge>
    <edge id=":D_5" function="internal">
        <lane id=":D_5_0" index="0" speed="40.00" length="20.80" shape="330.97,767.41 310.17,767.41"/>
        <lane id=":D_5_1" index="1" speed="40.00" length="20.80" shape="330.97,764.21 310.17,764.21"/>
    </edge>
    <edge id=":D_7" function="internal">
        <lane id=":D_7_0" index="0" speed="9.26" length="5.01" shape="330.97,764.21 326.01,763.50"/>
    </edge>
    <edge id=":D_17" function="internal">
        <lane id=":D_17_0" index="0" speed="9.26" length="14.34" shape="326.01,763.50 325.72,763.46 321.97,761.21 319.72,757.46 318.97,752.21"/>
    </edge>
    <edge id=":D_8" function="internal">
        <lane id=":D_8_0" index="0" speed="6.51" length="9.03" shape="325.37,752.21 325.72,754.66 326.77,756.41 328.52,757.46 330.97,757.81"/>
    </edge>
    <edge id=":D_9" function="internal">
        <lane id=":D_9_0" index="0" speed="40.00" length="20.80" shape="325.37,752.21 325.37,773.01"/>
        <lane id=":D_9_1" index="1" speed="40.00" length="20.80" shape="322.17,752.21 322.17,773.01"/>
    </edge>
    <edge id=":D_11" function="internal">
        <lane id=":D_11_0" index="0" speed="9.26" length="5.01" shape="322.17,752.21 321.46,757.17"/>
    </edge>
    <edge id=":D_18" function="internal">
        <lane id=":D_18_0" index="0" speed="9.26" length="14.34" shape="321.46,757.17 321.42,757.46 319.17,761.21 315.42,763.46 310.17,764.21"/>
    </edge>
    <edge id=":D_12" function="internal">
        <lane id=":D_12_0" index="0" speed="6.51" length="9.03" shape="310.17,757.81 312.62,757.46 314.37,756.41 315.42,754.66 315.77,752.21"/>
    </edge>
    <edge id=":D_13" function="internal">
        <lane id=":D_13_0" index="0" speed="40.00" length="20.80" shape="310.17,757.81 330.97,757.81"/>
        <lane id=":D_13_1" index="1" speed="40.00" length="20.80" shape="310.17,761.01 330.97,761.01"/>
    </edge>
    <edge id=":D_15" function="internal">
        <lane id=":D_15_0" index="0" speed="9.26" length="5.01" shape="310.17,761.01 315.13,761.72"/>
    </edge>
    <edge id=":D_19" function="internal">
        <lane id=":D_19_0" index="0" speed="9.26" length="14.34" shape="315.13,761.72 315.42,761.76 319.17,764.01 321.42,767.76 322.17,773.01"/>
    </edge>
    <edge id=":DA_0" function="internal">
        <lane id=":DA_0_0" index="0" speed="3.65" length="4.67" shape="318.97,442.04 319.77,440.84 320.57,440.44 321.37,440.84 322.17,442.04"/>
    </edge>
    <edge id=":DB_0" function="internal">
        <lane id=":DB_0_0" index="0" speed="3.65" length="4.67" shape="-0.00,764.21 -1.20,763.41 -1.60,762.61 -1.20,761.81 -0.00,761.01"/>
    </edge>
    <edge id=":DC_0" function="internal">
        <lane id=":DC_0_0" index="0" speed="3.65" length="4.67" shape="322.17,1083.18 321.37,1084.38 320.57,1084.78 319.77,1084.38 318.97,1083.18"/>
    </edge>
    <edge id=":TL_0" function="internal">
        <lane id=":TL_0_0" index="0" speed="7.33" length="11.73" shape="626.74,776.21 626.39,772.36 625.34,769.61 623.59,767.96 621.14,767.41"/>
    </edge>
    <edge id=":TL_1" function="internal">
        <lane id=":TL_1_0" index="0" speed="40.00" length="24.28" shape="626.74,776.21 627.24,769.06 628.34,764.21 629.44,759.37 629.94,752.21"/>
        <lane id=":TL_1_1" index="1" speed="40.00" length="24.28" shape="629.94,776.21 630.44,769.06 631.54,764.21 632.64,759.37 633.14,752.21"/>
        <lane id=":TL_1_2" index="2" speed="40.00" length="24.28" shape="633.14,776.21 633.64,769.06 634.74,764.21 635.84,759.37 636.34,752.21"/>
        <lane id=":TL_1_3" index="3" speed="40.00" length="24.28" shape="636.34,776.21 636.84,769.06 637.94,764.21 639.04,759.37 639.54,752.21"/>
    </edge>
    <edge id=":TL_5" function="internal">
        <lane id=":TL_5_0" index="0" speed="10.88" length="11.30" shape="639.54,776.21 640.69,769.56 643.37,765.88"/>
    </edge>
    <edge id=":TL_19" function="internal">
        <lane id=":TL_19_0" index="0" speed="10.88" length="15.84" shape="643.37,765.88 644.14,764.81 649.89,761.96 657.94,761.01"/>
    </edge>
    <edge id=":TL_6" function="internal">
        <lane id=":TL_6_0" index="0" speed="6.51" length="9.03" shape="657.94,770.61 655.49,770.96 653.74,772.01 652.69,773.76 652.34,776.21"/>
    </edge>
    <edge id=":TL_7" function="internal">
        <lane id=":TL_7_0" index="0" speed="40.00" length="36.94" shape="657.94,770.61 621.14,767.41"/>
        <lane id=":TL_7_1" index="1" speed="40.00" length="36.94" shape="657.94,767.41 621.14,764.21"/>
    </edge>
    <edge id=":TL_9" function="internal">
        <lane id=":TL_9_0" index="0" speed="10.41" length="7.59" shape="657.94,764.21 650.38,763.51"/>
    </edge>
    <edge id=":TL_20" function="internal">
        <lane id=":TL_20_0" index="0" speed="10.41" length="17.14" shape="650.38,763.51 649.89,763.46 644.14,761.21 640.69,757.46 639.54,752.21"/>
    </edge>
    <edge id=":TL_10" function="internal">
        <lane id=":TL_10_0" index="0" speed="6.51" length="9.03" shape="652.34,752.21 652.69,754.66 653.74,756.41 655.49,757.46 657.94,757.81"/>
    </edge>
    <edge id=":TL_11" function="internal">
        <lane id=":TL_11_0" index="0" speed="40.00" length="24.00" shape="652.34,752.21 652.34,776.21"/>
        <lane id=":TL_11_1" index="1" speed="40.00" length="24.00" shape="649.14,752.21 649.14,776.21"/>
        <lane id=":TL_11_2" index="2" speed="40.00" length="24.00" shape="645.94,752.21 645.94,776.21"/>
    </edge>
    <edge id=":TL_14" function="internal">
        <lane id=":TL_14_0" index="0" speed="10.96" length="3.91" shape="642.74,752.21 641.77,756.00"/>
    </edge>
    <edge id=":TL_21" function="internal">
        <lane id=":TL_21_0" index="0" speed="10.96" length="23.63" shape="641.77,756.00 641.39,757.46 637.34,761.21 630.59,763.46 621.14,764.21"/>
    </edge>
    <edge id=":TL_15" function="internal">
        <lane id=":TL_15_0" index="0" speed="7.33" length="11.73" shape="621.14,757.81 624.99,757.46 627.74,756.41 629.39,754.66 629.94,752.21"/>
    </edge>
    <edge id=":TL_16" function="internal">
        <lane id=":TL_16_0" index="0" speed="40.00" length="36.80" shape="621.14,757.81 657.94,757.81"/>
        <lane id=":TL_16_1" index="1" speed="40.00" length="36.80" shape="621.14,761.01 657.94,761.01"/>
    </edge>
    <edge id=":TL_18" function="internal">
        <lane id=":TL_18_0" index="0" speed="11.39" length="11.19" shape="621.14,761.01 630.59,761.96 632.15,762.62"/>
    </edge>
    <edge id=":TL_22" function="internal">
        <lane id=":TL_22_0" index="0" speed="11.39" length="18.66" shape="632.15,762.62 637.34,764.81 641.39,769.56 642.74,776.21"/>
    </edge>

    <edge id="A2AA" from="A" to="AA" priority="-1">
        <lane id="A2AA_0" index="0" speed="40.00" length="412.60" shape="621.14,1209.61 208.54,1209.61"/>
        <lane id="A2AA_1" index="1" speed="40.00" length="412.60" shape="621.14,1206.41 208.54,1206.41"/>
        <lane id="A2AA_2" index="2" speed="40.00" length="412.60" shape="621.14,1203.21 208.54,1203.21"/>
        <lane id="A2AA_3" index="3" speed="40.00" length="412.60" shape="621.14,1200.01 208.54,1200.01"/>
        <lane id="A2AA_4" index="4" speed="40.00" length="412.60" shape="621.14,1196.81 208.54,1196.81"/>
    </edge>
    <edge id="A2AB" from="A" to="AB" priority="-1">
        <lane id="A2AB_0" index="0" speed="40.00" length="412.60" shape="655.54,1215.21 655.54,1627.81"/>
        <lane id="A2AB_1" index="1" speed="40.00" length="412.60" shape="652.34,1215.21 652.34,1627.81"/>
        <lane id="A2AB_2" index="2" speed="40.00" length="412.60" shape="649.14,1215.21 649.14,1627.81"/>
        <lane id="A2AB_3" index="3" speed="40.00" length="412.60" shape="645.94,1215.21 645.94,1627.81"/>
        <lane id="A2AB_4" index="4" speed="40.00" length="412.60" shape="642.74,1215.21 642.74,1627.81"/>
    </edge>
    <edge id="A2AC" from="A" to="AC" priority="-1">
        <lane id="A2AC_0" index="0" speed="40.00" length="412.60" shape="661.14,1180.81 1073.74,1180.81"/>
        <lane id="A2AC_1" index="1" speed="40.00" length="412.60" shape="661.14,1184.01 1073.74,1184.01"/>
        <lane id="A2AC_2" index="2" speed="40.00" length="412.60" shape="661.14,1187.21 1073.74,1187.21"/>
        <lane id="A2AC_3" index="3" speed="40.00" length="412.60" shape="661.14,1190.41 1073.74,1190.41"/>
        <lane id="A2AC_4" index="4" speed="40.00" length="412.60" shape="661.14,1193.61 1073.74,1193.61"/>
    </edge>
    <edge id="A2TL" from="A" to="TL" priority="-1">
        <lane id="A2TL_0" index="0" speed="40.00" length="399.00" shape="626.74,1175.21 626.74,776.21"/>
        <lane id="A2TL_1" index="1" speed="40.00" length="399.00" shape="629.94,1175.21 629.94,776.21"/>
        <lane id="A2TL_2" index="2" speed="40.00" length="399.00" shape="633.14,1175.21 633.14,776.21"/>
        <lane id="A2TL_3" index="3" speed="40.00" length="399.00" shape="636.34,1175.21 636.34,776.21"/>
        <lane id="A2TL_4" index="4" speed="40.00" length="399.00" shape="639.54,1175.21 639.54,776.21"/>
    </edge>
    <edge id="AA2A" from="AA" to="A" priority="-1">
        <lane id="AA2A_0" index="0" speed="40.00" length="412.60" shape="208.54,1184.01 621.14,1184.01"/>
        <lane id="AA2A_1" index="1" speed="40.00" length="412.60" shape="208.54,1187.21 621.14,1187.21"/>
        <lane id="AA2A_2" index="2" speed="40.00" length="412.60" shape="208.54,1190.41 621.14,1190.41"/>
        <lane id="AA2A_3" index="3" speed="40.00" length="412.60" shape="208.54,1193.61 621.14,1193.61"/>
    </edge>
    <edge id="AB2A" from="AB" to="A" priority="-1">
        <lane id="AB2A_0" index="0" speed="40.00" length="412.60" shape="629.94,1627.81 629.94,1215.21"/>
        <lane id="AB2A_1" index="1" speed="40.00" length="412.60" shape="633.14,1627.81 633.14,1215.21"/>
        <lane id="AB2A_2" index="2" speed="40.00" length="412.60" shape="636.34,1627.81 636.34,1215.21"/>
        <lane id="AB2A_3" index="3" speed="40.00" length="412.60" shape="639.54,1627.81 639.54,1215.21"/>
    </edge>
    <edge id="AC2A" from="AC" to="A" priority="-1">
        <lane id="AC2A_0" index="0" speed="40.00" length="412.60" shape="1073.74,1206.41 661.14,1206.41"/>
        <lane id="AC2A_1" index="1" speed="40.00" length="412.60" shape="1073.74,1203.21 661.14,1203.21"/>
        <lane id="AC2A_2" index="2" speed="40.00" length="412.60" shape="1073.74,1200.01 661.14,1200.01"/>
        <lane id="AC2A_3" index="3" speed="40.00" length="412.60" shape="1073.74,1196.81 661.14,1196.81"/>
    </edge>
    <edge id="B2BA" from="B" to="BA" priority="-1">
        <lane id="B2BA_0" index="0" speed="40.00" length="599.08" shape="1261.82,776.21 1261.82,1375.29"/>
        <lane id="B2BA_1" index="1" speed="40.00" length="599.08" shape="1258.62,776.21 1258.62,1375.29"/>
        <lane id="B2BA_2" index="2" speed="40.00" length="599.08" shape="1255.42,776.21 1255.42,1375.29"/>
    </edge>
    <edge id="B2BB" from="B" to="BB" priority="-1">
        <lane id="B2BB_0" index="0" speed="40.00" length="599.08" shape="1267.42,754.61 1866.49,754.61"/>
        <lane id="B2BB_1" index="1" speed="40.00" length="599.08" shape="1267.42,757.81 1866.49,757.81"/>
        <lane id="B2BB_2" index="2" speed="40.00" length="599.08" shape="1267.42,761.01 1866.49,761.01"/>
    </edge>
    <edge id="B2BC" from="B" to="BC" priority="-1">
        <lane id="B2BC_0" index="0" speed="40.00" length="599.08" shape="1245.82,749.01 1245.82,149.93"/>
        <lane id="B2BC_1" index="1" speed="40.00" length="599.08" shape="1249.02,749.01 1249.02,149.93"/>
        <lane id="B2BC_2" index="2" speed="40.00" length="599.08" shape="1252.22,749.01 1252.22,149.93"/>
    </edge>
    <edge id="B2TL" from="B" to="TL" priority="-1">
        <lane id="B2TL_0" index="0" speed="40.00" length="582.28" shape="1240.22,770.61 657.94,770.61"/>
        <lane id="B2TL_1" index="1" speed="40.00" length="582.28" shape="1240.22,767.41 657.94,767.41"/>
        <lane id="B2TL_2" index="2" speed="40.00" length="582.28" shape="1240.22,764.21 657.94,764.21"/>
    </edge>
    <edge id="BA2B" from="BA" to="B" priority="-1">
        <lane id="BA2B_0" index="0" speed="40.00" length="599.08" shape="1249.02,1375.29 1249.02,776.21"/>
        <lane id="BA2B_1" index="1" speed="40.00" length="599.08" shape="1252.22,1375.29 1252.22,776.21"/>
    </edge>
    <edge id="BB2B" from="BB" to="B" priority="-1">
        <lane id="BB2B_0" index="0" speed="40.00" length="599.08" shape="1866.49,767.41 1267.42,767.41"/>
        <lane id="BB2B_1" index="1" speed="40.00" length="599.08" shape="1866.49,764.21 1267.42,764.21"/>
    </edge>
    <edge id="BC2B" from="BC" to="B" priority="-1">
        <lane id="BC2B_0" index="0" speed="40.00" length="599.08" shape="1258.62,149.93 1258.62,749.01"/>
        <lane id="BC2B_1" index="1" speed="40.00" length="599.08" shape="1255.42,149.93 1255.42,749.01"/>
    </edge>
    <edge id="C2CA" from="C" to="CA" priority="-1">
        <lane id="C2CA_0" index="0" speed="40.00" length="364.51" shape="657.94,370.11 1022.45,370.11"/>
        <lane id="C2CA_1" index="1" speed="40.00" length="364.51" shape="657.94,373.31 1022.45,373.31"/>
        <lane id="C2CA_2" index="2" speed="40.00" length="364.51" shape="657.94,376.51 1022.45,376.51"/>
        <lane id="C2CA_3" index="3" speed="40.00" length="364.51" shape="657.94,379.71 1022.45,379.71"/>
    </edge>
    <edge id="C2CB" from="C" to="CB" priority="-1">
        <lane id="C2CB_0" index="0" speed="40.00" length="364.51" shape="629.94,364.51 629.94,0.00"/>
        <lane id="C2CB_1" index="1" speed="40.00" length="364.51" shape="633.14,364.51 633.14,0.00"/>
        <lane id="C2CB_2" index="2" speed="40.00" length="364.51" shape="636.34,364.51 636.34,0.00"/>
        <lane id="C2CB_3" index="3" speed="40.00" length="364.51" shape="639.54,364.51 639.54,0.00"/>
    </edge>
    <edge id="C2CC" from="C" to="CC" priority="-1">
        <lane id="C2CC_0" index="0" speed="40.00" length="364.51" shape="624.34,392.51 259.83,392.51"/>
        <lane id="C2CC_1" index="1" speed="40.00" length="364.51" shape="624.34,389.31 259.83,389.31"/>