<?xml version="1.0" encoding="UTF-8"?>

<!-- generated on 2022-10-11 17:11:06 by Eclipse SUMO netconvert Version 1.14.1
<configuration xmlns:xsi="http://www.w3.org/2001/XMLSchema-instance" xsi:noNamespaceSchemaLocation="http://sumo.dlr.de/xsd/netconvertConfiguration.xsd">

    <input>
        <node-files value="../data/salt-lake-city/nodes.nod.xml"/>
        <edge-files value="../data/salt-lake-city/edges.edg.xml"/>
        <connection-files value="../data/salt-lake-city/connections.con.xml"/>
    </input>

    <output>
        <output-file value="../data/salt-lake-city/sumo/net/301.net.xml"/>
    </output>

    <tls_building>
        <tls.minor-left.max-speed value="1"/>
    </tls_building>

    <report>
        <verbose value="true"/>
    </report>

</configuration>
-->

<net version="1.9" junctionCornerDetail="5" limitTurnSpeed="5.50" xmlns:xsi="http://www.w3.org/2001/XMLSchema-instance" xsi:noNamespaceSchemaLocation="http://sumo.dlr.de/xsd/net_file.xsd">

    <location netOffset="639.60,633.25" convBoundary="0.00,0.00,1216.27,1120.08" origBoundary="-639.60,-633.25,576.67,486.82" projParameter="!"/>

    <edge id=":A_0" function="internal">
        <lane id=":A_0_0" index="0" speed="6.51" length="9.03" shape="638.00,883.87,-2.23 637.65,881.42,-2.23 636.60,879.67,-2.23 634.85,878.62,-2.23 632.40,878.27,-2.23"/>
    </edge>
    <edge id=":A_1" function="internal">
        <lane id=":A_1_0" index="0" speed="25.00" length="14.40" shape="638.00,883.87,-2.23 638.00,869.47,-2.16"/>
    </edge>
    <edge id=":A_2" function="internal">
        <lane id=":A_2_0" index="0" speed="6.51" length="9.03" shape="646.80,878.27,-2.23 644.35,878.62,-2.23 642.60,879.67,-2.23 641.55,881.42,-2.23 641.20,883.87,-2.23"/>
    </edge>
    <edge id=":A_3" function="internal">
        <lane id=":A_3_0" index="0" speed="25.00" length="14.40" shape="646.80,878.27,-2.23 632.40,878.27,-2.23"/>
    </edge>
    <edge id=":A_4" function="internal">
        <lane id=":A_4_0" index="0" speed="6.51" length="9.03" shape="641.20,869.47,-2.16 641.55,871.92,-2.18 642.60,873.67,-2.19 644.35,874.72,-2.21 646.80,875.07,-2.23"/>
    </edge>
    <edge id=":A_5" function="internal">
        <lane id=":A_5_0" index="0" speed="25.00" length="14.40" shape="641.20,869.47,-2.16 641.20,883.87,-2.23"/>
    </edge>
    <edge id=":A_6" function="internal">
        <lane id=":A_6_0" index="0" speed="6.51" length="9.03" shape="632.40,875.07,-2.23 634.85,874.72,-2.21 636.60,873.67,-2.19 637.65,871.92,-2.18 638.00,869.47,-2.16"/>
    </edge>
    <edge id=":A_7" function="internal">
        <lane id=":A_7_0" index="0" speed="25.00" length="14.40" shape="632.40,875.07,-2.23 646.80,875.07,-2.23"/>
    </edge>
    <edge id=":AA_0" function="internal">
        <lane id=":AA_0_0" index="0" speed="3.65" length="4.67" shape="396.19,878.27,-2.23 394.99,877.47,-2.23 394.59,876.67,-2.23 394.99,875.87,-2.23 396.19,875.07,-2.23"/>
    </edge>
    <edge id=":AB_0" function="internal">
        <lane id=":AB_0_0" index="0" speed="3.65" length="4.67" shape="641.20,1120.08,-2.23 640.40,1121.28,-2.23 639.60,1121.68,-2.23 638.80,1121.28,-2.23 638.00,1120.08,-2.23"/>
    </edge>
    <edge id=":AC_0" function="internal">
        <lane id=":AC_0_0" index="0" speed="3.65" length="4.67" shape="883.02,875.07,-2.23 884.22,875.87,-2.23 884.62,876.67,-2.23 884.22,877.47,-2.23 883.02,878.27,-2.23"/>
    </edge>
    <edge id=":B_0" function="internal">
        <lane id=":B_0_0" index="0" speed="6.51" length="9.03" shape="926.34,640.45,5.89 925.99,638.00,5.85 924.94,636.25,5.81 923.19,635.20,5.78 920.74,634.85,5.74"/>
    </edge>
    <edge id=":B_1" function="internal">
        <lane id=":B_1_0" index="0" speed="30.00" length="14.40" shape="926.34,640.45,5.89 926.34,626.05,5.89"/>
    </edge>
    <edge id=":B_2" function="internal">
        <lane id=":B_2_0" index="0" speed="6.51" length="9.03" shape="935.14,634.85,5.89 932.69,635.20,5.89 930.94,636.25,5.89 929.89,638.00,5.89 929.54,640.45,5.89"/>
    </edge>
    <edge id=":B_3" function="internal">
        <lane id=":B_3_0" index="0" speed="30.00" length="14.40" shape="935.14,634.85,5.89 920.74,634.85,5.74"/>
    </edge>
    <edge id=":B_4" function="internal">
        <lane id=":B_4_0" index="0" speed="6.51" length="9.03" shape="929.54,626.05,5.89 929.89,628.50,5.89 930.94,630.25,5.89 932.69,631.30,5.89 935.14,631.65,5.89"/>
    </edge>
    <edge id=":B_5" function="internal">
        <lane id=":B_5_0" index="0" speed="30.00" length="14.40" shape="929.54,626.05,5.89 929.54,640.45,5.89"/>
    </edge>
    <edge id=":B_6" function="internal">
        <lane id=":B_6_0" index="0" speed="6.51" length="9.03" shape="920.74,631.65,5.74 923.19,631.30,5.78 924.94,630.25,5.81 925.99,628.50,5.85 926.34,626.05,5.89"/>
    </edge>
    <edge id=":B_7" function="internal">
        <lane id=":B_7_0" index="0" speed="30.00" length="14.40" shape="920.74,631.65,5.74 935.14,631.65,5.89"/>
    </edge>
    <edge id=":BA_0" function="internal">
        <lane id=":BA_0_0" index="0" speed="3.65" length="4.67" shape="929.54,921.59,5.89 928.74,922.79,5.89 927.94,923.19,5.89 927.14,922.79,5.89 926.34,921.59,5.89"/>
    </edge>
    <edge id=":BB_0" function="internal">
        <lane id=":BB_0_0" index="0" speed="3.65" length="4.67" shape="1216.27,631.65,5.89 1217.47,632.45,5.89 1217.87,633.25,5.89 1217.47,634.05,5.89 1216.27,634.85,5.89"/>
    </edge>
    <edge id=":BC_0" function="internal">
        <lane id=":BC_0_0" index="0" speed="3.65" length="4.67" shape="926.34,344.92,5.89 927.14,343.72,5.89 927.94,343.32,5.89 928.74,343.72,5.89 929.54,344.92,5.89"/>
    </edge>
    <edge id=":C_0" function="internal">
        <lane id=":C_0_0" index="0" speed="6.51" length="9.03" shape="638.00,323.83,-1.32 637.65,321.38,-1.33 636.60,319.63,-1.34 634.85,318.58,-1.34 632.40,318.23,-1.35"/>
    </edge>
    <edge id=":C_1" function="internal">
        <lane id=":C_1_0" index="0" speed="25.00" length="14.40" shape="638.00,323.83,-1.32 638.00,309.43,-1.35"/>
    </edge>
    <edge id=":C_2" function="internal">
        <lane id=":C_2_0" index="0" speed="6.51" length="9.03" shape="646.80,318.23,-1.35 644.35,318.58,-1.34 642.60,319.63,-1.34 641.55,321.38,-1.33 641.20,323.83,-1.32"/>
    </edge>
    <edge id=":C_3" function="internal">
        <lane id=":C_3_0" index="0" speed="25.00" length="14.40" shape="646.80,318.23,-1.35 632.40,318.23,-1.35"/>
    </edge>
    <edge id=":C_4" function="internal">
        <lane id=":C_4_0" index="0" speed="6.51" length="9.03" shape="641.20,309.43,-1.35 641.55,311.88,-1.35 642.60,313.63,-1.35 644.35,314.68,-1.35 646.80,315.03,-1.35"/>
    </edge>
    <edge id=":C_5" function="internal">
        <lane id=":C_5_0" index="0" speed="25.00" length="14.40" shape="641.20,309.43,-1.35 641.20,323.83,-1.32"/>
    </edge>
    <edge id=":C_6" function="internal">
        <lane id=":C_6_0" index="0" speed="6.51" length="9.03" shape="632.40,315.03,-1.35 634.85,314.68,-1.35 636.60,313.63,-1.35 637.65,311.88,-1.35 638.00,309.43,-1.35"/>
    </edge>
    <edge id=":C_7" function="internal">
        <lane id=":C_7_0" index="0" speed="25.00" length="14.40" shape="632.40,315.03,-1.35 646.80,315.03,-1.35"/>
    </edge>
    <edge id=":CA_0" function="internal">
        <lane id=":CA_0_0" index="0" speed="3.65" length="4.67" shape="956.23,315.03,-1.35 957.43,315.83,-1.35 957.83,316.63,-1.35 957.43,317.43,-1.35 956.23,318.23,-1.35"/>
    </edge>
    <edge id=":CB_0" function="internal">
        <lane id=":CB_0_0" index="0" speed="3.65" length="4.67" shape="638.00,0.00,-1.35 638.80,-1.20,-1.35 639.60,-1.60,-1.35 640.40,-1.20,-1.35 641.20,0.00,-1.35"/>
    </edge>
    <edge id=":CC_0" function="internal">
        <lane id=":CC_0_0" index="0" speed="3.65" length="4.67" shape="322.98,318.23,-1.35 321.78,317.43,-1.35 321.38,316.63,-1.35 321.78,315.83,-1.35 322.98,315.03,-1.35"/>
    </edge>
    <edge id=":D_0" function="internal">
        <lane id=":D_0_0" index="0" speed="6.51" length="9.03" shape="318.20,640.45,6.53 317.85,638.00,6.53 316.80,636.25,6.53 315.05,635.20,6.53 312.60,634.85,6.53"/>
    </edge>
    <edge id=":D_1" function="internal">
        <lane id=":D_1_0" index="0" speed="25.00" length="14.40" shape="318.20,640.45,6.53 318.20,626.05,6.53"/>
    </edge>
    <edge id=":D_2" function="internal">
        <lane id=":D_2_0" index="0" speed="6.51" length="9.03" shape="327.00,634.85,6.38 324.55,635.20,6.42 322.80,636.25,6.46 321.75,638.00,6.49 321.40,640.45,6.53"/>
    </edge>
    <edge id=":D_3" function="internal">
        <lane id=":D_3_0" index="0" speed="25.00" length="14.40" shape="327.00,634.85,6.38 312.60,634.85,6.53"/>
    </edge>
    <edge id=":D_4" function="internal">
        <lane id=":D_4_0" index="0" speed="6.51" length="9.03" shape="321.40,626.05,6.53 321.75,628.50,6.49 322.80,630.25,6.46 324.55,631.30,6.42 327.00,631.65,6.38"/>
    </edge>
    <edge id=":D_5" function="internal">
        <lane id=":D_5_0" index="0" speed="25.00" length="14.40" shape="321.40,626.05,6.53 321.40,640.45,6.53"/>
    </edge>
    <edge id=":D_6" function="internal">
        <lane id=":D_6_0" index="0" speed="6.51" length="9.03" shape="312.60,631.65,6.53 315.05,631.30,6.53 316.80,630.25,6.53 317.85,628.50,6.53 318.20,626.05,6.53"/>
    </edge>
    <edge id=":D_7" function="internal">
        <lane id=":D_7_0" index="0" speed="25.00" length="14.40" shape="312.60,631.65,6.53 327.00,631.65,6.38"/>
    </edge>
    <edge id=":DA_0" function="internal">
        <lane id=":DA_0_0" index="0" speed="3.65" length="4.67" shape="318.20,313.45,6.53 319.00,312.25,6.53 319.80,311.85,6.53 320.60,312.25,6.53 321.40,313.45,6.53"/>
    </edge>
    <edge id=":DB_0" function="internal">
        <lane id=":DB_0_0" index="0" speed="3.65" length="4.67" shape="-0.00,634.85,6.53 -1.20,634.05,6.53 -1.60,633.25,6.53 -1.20,632.45,6.53 0.00,631.65,6.53"/>
    </edge>
    <edge id=":DC_0" function="internal">
        <lane id=":DC_0_0" index="0" speed="3.65" length="4.67" shape="321.40,953.06,6.53 320.60,954.26,6.53 319.80,954.66,6.53 319.00,954.26,6.53 318.20,953.06,6.53"/>
    </edge>
    <edge id=":TL_0" function="internal">
        <lane id=":TL_0_0" index="0" speed="6.51" length="9.03" shape="638.00,640.45,-0.07 637.65,638.00,-0.01 636.60,636.25,0.04 634.85,635.20,0.09 632.40,634.85,0.15"/>
    </edge>
    <edge id=":TL_1" function="internal">
        <lane id=":TL_1_0" index="0" speed="25.00" length="14.40" shape="638.00,640.45,-0.07 638.00,626.05,-0.03"/>
    </edge>
    <edge id=":TL_2" function="internal">
        <lane id=":TL_2_0" index="0" speed="6.51" length="9.03" shape="646.80,634.85,0.15 644.35,635.20,0.09 642.60,636.25,0.04 641.55,638.00,-0.01 641.20,640.45,-0.07"/>
    </edge>
    <edge id=":TL_3" function="internal">
        <lane id=":TL_3_0" index="0" speed="27.50" length="14.40" shape="646.80,634.85,0.15 632.40,634.85,0.15"/>
    </edge>
    <edge id=":TL_4" function="internal">
        <lane id=":TL_4_0" index="0" speed="6.51" length="9.03" shape="641.20,626.05,-0.03 641.55,628.50,0.02 642.60,630.25,0.06 644.35,631.30,0.10 646.80,631.65,0.15"/>
    </edge>
    <edge id=":TL_5" function="internal">
        <lane id=":TL_5_0" index="0" speed="25.00" length="14.40" shape="641.20,626.05,-0.03 641.20,640.45,-0.07"/>
    </edge>
    <edge id=":TL_6" function="internal">
        <lane id=":TL_6_0" index="0" speed="6.51" length="9.03" shape="632.40,631.65,0.15 634.85,631.30,0.10 636.60,630.25,0.06 637.65,628.50,0.02 638.00,626.05,-0.03"/>
    </edge>
    <edge id=":TL_7" function="internal">
        <lane id=":TL_7_0" index="0" speed="27.50" length="14.40" shape="632.40,631.65,0.15 646.80,631.65,0.15"/>
    </edge>

    <edge id="A2AA" from="A" to="AA" priority="-1">
        <lane id="A2AA_0" index="0" speed="25.00" length="236.21" shape="632.40,878.27,-2.23 396.19,878.27,-2.23"/>
    </edge>
    <edge id="A2AB" from="A" to="AB" priority="-1">
        <lane id="A2AB_0" index="0" speed="25.00" length="236.21" shape="641.20,883.87,-2.23 641.20,1120.08,-2.23"/>
    </edge>
    <edge id="A2AC" from="A" to="AC" priority="-1">
        <lane id="A2AC_0" index="0" speed="25.00" length="236.21" shape="646.80,875.07,-2.23 883.02,875.07,-2.23"/>
    </edge>
    <edge id="A2TL" from="A" to="TL" priority="-1">
        <lane id="A2TL_0" index="0" speed="25.00" length="229.02" shape="638.00,869.47,-2.16 638.00,640.45,-0.07"/>
    </edge>
    <edge id="AA2A" from="AA" to="A" priority="-1">
        <lane id="AA2A_0" index="0" speed="25.00" length="236.21" shape="396.19,875.07,-2.23 632.40,875.07,-2.23"/>
    </edge>
    <edge id="AB2A" from="AB" to="A" priority="-1">
        <lane id="AB2A_0" index="0" speed="25.00" length="236.21" shape="638.00,1120.08,-2.23 638.00,883.87,-2.23"/>
    </edge>
    <edge id="AC2A" from="AC" to="A" priority="-1">
        <lane id="AC2A_0" index="0" speed="25.00" length="236.21" shape="883.02,878.27,-2.23 646.80,878.27,-2.23"/>
    </edge>
    <edge id="B2BA" from="B" to="BA" priority="-1">
        <lane id="B2BA_0" index="0" speed="30.00" length="281.13" shape="929.54,640.45,5.89 929.54,921.59,5.89"/>
    </edge>
    <edge id="B2BB" from="B" to="BB" priority="-1">
        <lane id="B2BB_0" index="0" speed="30.00" length="281.13" shape="935.14,631.65,5.89 1216.27,631.65,5.89"/>
    </edge>
    <edge id="B2BC" from="B" to="BC" priority="-1">
        <lane id="B2BC_0" index="0" speed="30.00" length="281.13" shape="926.34,626.05,5.89 926.34,344.92,5.89"/>
    </edge>
    <edge id="B2TL" from="B" to="TL" priority="-1">
        <lane id="B2TL_0" index="0" speed="30.00" length="273.99" shape="920.74,634.85,5.74 646.80,634.85,0.15"/>
    </edge>
    <edge id="BA2B" from="BA" to="B" priority="-1">
        <lane id="BA2B_0" index="0" speed="30.00" length="281.13" shape="926.34,921.59,5.89 926.34,640.45,5.89"/>
    </edge>
    <edge id="BB2B" from="BB" to="B" priority="-1">
        <lane id="BB2B_0" index="0" speed="30.00" length="281.13" shape="1216.27,634.85,5.89 935.14,634.85,5.89"/>
    </edge>
    <edge id="BC2B" from="BC" to="B" priority="-1">
        <lane id="BC2B_0" index="0" speed="30.00" length="281.13" shape="929.54,344.92,5.89 929.54,626.05,5.89"/>
    </edge>
    <edge id="C2CA" from="C" to="CA" priority="-1">
        <lane id="C2CA_0" index="0" speed="25.00" length="309.43" shape="646.80,315.03,-1.35 956.23,315.03,-1.35"/>
    </edge>
    <edge id="C2CB" from="C" to="CB" priority="-1">
        <lane id="C2CB_0" index="0" speed="25.00" length="309.43" shape="638.00,309.43,-1.35 638.00,0.00,-1.35"/>
    </edge>
    <edge id="C2CC" from="C" to="CC" priority="-1">
        <lane id="C2CC_0" index="0" speed="25.00" length="309.43" shape="632.40,318.23,-1.35 322.98,318.23,-1.35"/>
    </edge>
    <edge id="C2TL" from="C" to="TL" priority="-1">
        <lane id="C2TL_0" index="0" speed="25.00" length="302.23" shape="641.20,323.83,-1.32 641.20,626.05,-0.03"/>
    </edge>
    <edge id="CA2C" from="CA" to="C" priority="-1">
        <lane id="CA2C_0" index="0" speed="25.00" length="309.43" shape="956.23,318.23,-1.35 646.80,318.23,-1.35"/>
    </edge>
    <edge id="CB2C" from="CB" to="C" priority="-1">
        <lane id="CB2C_0" index="0" speed="25.00" length="309.43" shape="641.20,0.00,-1.35 641.20,309.43,-1.35"/>
    </edge>
    <edge id="CC2C" from="CC" to="C" priority="-1">
        <lane id="CC2C_0" index="0" speed="25.00" length="309.43" shape="322.98,315.03,-1.35 632.40,315.03,-1.35"/>
    </edge>
    <edge id="D2DA" from="D" to="DA" priority="-1">
        <lane id="D2DA_0" index="0" speed="25.00" length="312.60" shape="318.20,626.05,6.53 318.20,313.45,6.53"/>
    </edge>
    <edge id="D2DB" from="D" to="DB" priority="-1">
        <lane id="D2DB_0" index="0" speed="25.00" length="312.60" shape="312.60,634.85,6.53 -0.00,634.85,6.53"/>
    </edge>
    <edge id="D2DC" from="D" to="DC" priority="-1">
        <lane id="D2DC_0" index="0" speed="25.00" length="312.60" shape="321.40,640.45,6.53 321.40,953.06,6.53"/>
    </edge>
    <edge id="D2TL" from="D" to="TL" priority="-1">
        <lane id="D2TL_0" index="0" speed="25.00" length="305.47" shape="327.00,631.65,6.38 632.40,631.65,0.15"/>
    </edge>
    <edge id="DA2D" from="DA" to="D" priority="-1">
        <lane id="DA2D_0" index="0" speed="25.00" length="312.60" shape="321.40,313.45,6.53 321.40,626.05,6.53"/>
    </edge>
    <edge id="DB2D" from="DB" to="D" priority="-1">
        <lane id="DB2D_0" index="0" speed="25.00" length="312.60" shape="0.00,631.65,6.53 312.60,631.65,6.53"/>
    </edge>
    <edge id="DC2D" from="DC" to="D" priority="-1">
        <lane id="DC2D_0" index="0" speed="25.00" length="312.60" shape="318.20,953.06,6.53 318.20,640.45,6.53"/>
    </edge>
    <edge id="TL2A" from="TL" to="A" priority="-1">
        <lane id="TL2A_0" index="0" speed="25.00" length="229.02" shape="641.20,640.45,-0.07 641.20,869.47,-2.16"/>
    </edge>
    <edge id="TL2B" from="TL" to="B" priority="-1">
        <lane id="TL2B_0" index="0" speed="30.00" length="273.99" shape="646.80,631.65,0.15 920.74,631.65,5.74"/>
    </edge>
    <edge id="TL2C" from="TL" to="C" priority="-1">
        <lane id="TL2C_0" index="0" speed="25.00" length="302.23" shape="638.00,626.05,-0.03 638.00,323.83,-1.32"/>
    </edge>
    <edge id="TL2D" from="TL" to="D" priority="-1">
        <lane id="TL2D_0" index="0" speed="25.00" length="305.47" shape="632.40,634.85,0.15 327.00,634.85,6.38"/>
    </edge>

    <tlLogic id="A" type="static" programID="0" offset="0">
        <phase duration="40" state="GGrrGGrr"/>
        <phase duration="5"  state="yyrryyrr"/>
        <phase duration="40" state="rrGGrrGG"/>
        <phase duration="5"  state="rryyrryy"/>
    </tlLogic>
    <tlLogic id="AA" type="static" programID="0" offset="0">
        <phase duration="80" state="G"/>
        <phase duration="5"  state="y"/>
        <phase duration="5"  state="r"/>
    </tlLogic>
    <tlLogic id="AB" type="static" programID="0" offset="0">
        <phase duration="80" state="G"/>
        <phase duration="5"  state="y"/>
        <phase duration="5"  state="r"/>
    </tlLogic>
    <tlLogic id="AC" type="static" programID="0" offset="0">
        <phase duration="80" state="G"/>
        <phase duration="5"  state="y"/>
        <phase duration="5"  state="r"/>
    </tlLogic>
    <tlLogic id="B" type="static" programID="0" offset="0">
        <phase duration="39" state="GGrrGGrr"/>
        <phase duration="6"  state="yyrryyrr"/>
        <phase duration="39" state="rrGGrrGG"/>
        <phase duration="6"  state="rryyrryy"/>
    </tlLogic>
    <tlLogic id="BA" type="static" programID="0" offset="0">
        <phase duration="79" state="G"/>
        <phase duration="6"  state="y"/>
        <phase duration="5"  state="r"/>
    </tlLogic>
    <tlLogic id="BB" type="static" programID="0" offset="0">
        <phase duration="79" state="G"/>
        <phase duration="6"  state="y"/>
        <phase duration="5"  state="r"/>
    </tlLogic>
    <tlLogic id="BC" type="static" programID="0" offset="0">
        <phase duration="79" state="G"/>
        <phase duration="6"  state="y"/>
        <phase duration="5"  state="r"/>
    </tlLogic>
    <tlLogic id="C" type="static" programID="0" offset="0">
        <phase duration="40" state="GGrrGGrr"/>
        <phase duration="5"  state="yyrryyrr"/>
        <phase duration="40" state="rrGGrrGG"/>
        <phase duration="5"  state="rryyrryy"/>
    </tlLogic>
    <tlLogic id="CA" type="static" programID="0" offset="0">
        <phase duration="80" state="G"/>
        <phase duration="5"  state="y"/>
        <phase duration="5"  state="r"/>
    </tlLogic>
    <tlLogic id="CB" type="static" programID="0" offset="0">
        <phase duration="80" state="G"/>
        <phase duration="5"  state="y"/>
        <phase duration="5"  state="r"/>
    </tlLogic>
    <tlLogic id="CC" type="static" programID="0" offset="0">
        <phase duration="80" state="G"/>
        <phase duration="5"  state="y"/>
        <phase duration="5"  state="r"/>
    </tlLogic>
    <tlLogic id="D" type="static" programID="0" offset="0">
        <phase duration="40" state="GGrrGGrr"/>
        <phase duration="5"  state="yyrryyrr"/>
        <phase duration="40" state="rrGGrrGG"/>
        <phase duration="5"  state="rryyrryy"/>
    </tlLogic>
    <tlLogic id="DA" type="static" programID="0" offset="0">
        <phase duration="80" state="G"/>
        <phase duration="5"  state="y"/>
        <phase duration="5"  state="r"/>
    </tlLogic>
    <tlLogic id="DB" type="static" programID="0" offset="0">
        <phase duration="80" state="G"/>
        <phase duration="5"  state="y"/>
        <phase duration="5"  state="r"/>
    </tlLogic>
    <tlLogic id="DC" type="static" programID="0" offset="0">
        <phase duration="80" state="G"/>
        <phase duration="5"  state="y"/>
        <phase duration="5"  state="r"/>
    </tlLogic>
    <tlLogic id="TL" type="static" programID="0" offset="0">
        <phase duration="39" state="srGGsrGG"/>
        <phase duration="6"  state="sryysryy"/>
        <phase duration="39" state="GGsrGGsr"/>
        <phase duration="6"  state="yysryysr"/>
    </tlLogic>

    <junction id="A" type="traffic_light" x="639.60" y="876.67" z="-2.23" incLanes="AB2A_0 AC2A_0 TL2A_0 AA2A_0" intLanes=":A_0_0 :A_1_0 :A_2_0 :A_3_0 :A_4_0 :A_5_0 :A_6_0 :A_7_0" shape="636.40,883.87,-2.23 642.80,883.87,-2.23 643.25,881.64,-2.23 643.80,880.87,-2.23 644.58,880.31,-2.23 645.58,879.98,-2.23 646.80,879.87,-2.23 646.80,873.47,-2.23 644.58,873.02,-2.23 643.80,872.47,-2.23 643.25,871.69,-2.23 642.91,870.69,-2.23 642.80,869.47,-2.23 636.40,869.47,-2.23 635.96,871.69,-2.23 635.40,872.47,-2.23 634.63,873.02,-2.23 633.63,873.36,-2.23 632.40,873.47,-2.23 632.40,879.87,-2.23 634.63,880.31,-2.23 635.40,880.87,-2.23 635.96,881.64,-2.23 636.29,882.64,-2.23">
        <request index="0" response="00000000" foes="00001000" cont="0"/>
        <request index="1" response="00000000" foes="11001000" cont="0"/>
        <request index="2" response="00100000" foes="00100000" cont="0"/>
        <request index="3" response="00100011" foes="00100011" cont="0"/>
        <request index="4" response="00000000" foes="10000000" cont="0"/>
        <request index="5" response="00000000" foes="10001100" cont="0"/>
        <request index="6" response="00000010" foes="00000010" cont="0"/>
        <request index="7" response="00110010" foes="00110010" cont="0"/>
    </junction>
    <junction id="AA" type="traffic_light" x="396.19" y="876.67" z="-2.23" incLanes="A2AA_0" intLanes=":AA_0_0" shape="396.19,876.67,-2.23 396.19,879.87,-2.23 396.19,876.67,-2.23">
        <request index="0" response="0" foes="0" cont="0"/>
    </junction>
    <junction id="AB" type="traffic_light" x="639.60" y="1120.08" z="-2.23" incLanes="A2AB_0" intLanes=":AB_0_0" shape="639.60,1120.08,-2.23 642.80,1120.08,-2.23 639.60,1120.08,-2.23">
        <request index="0" response="0" foes="0" cont="0"/>
    </junction>
    <junction id="AC" type="traffic_light" x="883.02" y="876.67" z="-2.23" incLanes="A2AC_0" intLanes=":AC_0_0" shape="883.02,876.67,-2.23 883.02,873.47,-2.23 883.02,876.67,-2.23">
        <request index="0" response="0" foes="0" cont="0"/>
    </junction>
    <junction id="B" type="traffic_light" x="927.94" y="633.25" z="5.89" incLanes="BA2B_0 BB2B_0 BC2B_0 TL2B_0" intLanes=":B_0_0 :B_1_0 :B_2_0 :B_3_0 :B_4_0 :B_5_0 :B_6_0 :B_7_0" shape="924.74,640.45,5.89 931.14,640.45,5.89 931.58,638.23,5.89 932.14,637.45,5.89 932.92,636.90,5.89 933.92,636.57,5.89 935.14,636.45,5.89 935.14,630.05,5.89 932.92,629.61,5.89 932.14,629.05,5.89 931.58,628.28,5.89 931.25,627.28,5.89 931.14,626.05,5.89 924.74,626.05,5.89 924.29,628.28,5.89 923.74,629.05,5.89 922.96,629.61,5.89 921.96,629.94,5.89 920.74,630.05,5.89 920.74,636.45,5.89 922.96,636.90,5.89 923.74,637.45,5.89 924.29,638.23,5.89 924.63,639.23,5.89">
        <request index="0" response="00000000" foes="00001000" cont="0"/>
        <request index="1" response="00000000" foes="11001000" cont="0"/>
        <request index="2" response="00100000" foes="00100000" cont="0"/>
        <request index="3" response="00100011" foes="00100011" cont="0"/>
        <request index="4" response="00000000" foes="10000000" cont="0"/>
        <request index="5" response="00000000" foes="10001100" cont="0"/>
        <request index="6" response="00000010" foes="00000010" cont="0"/>
        <request index="7" response="00110010" foes="00110010" cont="0"/>
    </junction>
    <junction id="BA" type="traffic_light" x="927.94" y="921.59" z="5.89" incLanes="B2BA_0" intLanes=":BA_0_0" shape="927.94,921.59,5.89 931.14,921.59,5.89 927.94,921.59,5.89">
        <request index="0" response="0" foes="0" cont="0"/>
    </junction>
    <junction id="BB" type="traffic_light" x="1216.27" y="633.25" z="5.89" incLanes="B2BB_0" intLanes=":BB_0_0" shape="1216.27,633.25,5.89 1216.27,630.05,5.89 1216.27,633.25,5.89">
        <request index="0" response="0" foes="0" cont="0"/>
    </junction>
    <junction id="BC" type="traffic_light" x="927.94" y="344.92" z="5.89" incLanes="B2BC_0" intLanes=":BC_0_0" shape="927.94,344.92,5.89 924.74,344.92,5.89 927.94,344.92,5.89">
        <request index="0" response="0" foes="0" cont="0"/>
    </junction>
    <junction id="C" type="traffic_light" x="639.60" y="316.63" z="-1.35" incLanes="TL2C_0 CA2C_0 CB2C_0 CC2C_0" intLanes=":C_0_0 :C_1_0 :C_2_0 :C_3_0 :C_4_0 :C_5_0 :C_6_0 :C_7_0" shape="636.40,323.83,-1.35 642.80,323.83,-1.35 643.25,321.60,-1.35 643.80,320.83,-1.35 644.58,320.27,-1.35 645.58,319.94,-1.35 646.80,319.83,-1.35 646.80,313.43,-1.35 644.58,312.98,-1.35 643.80,312.43,-1.35 643.25,311.65,-1.35 642.91,310.65,-1.35 642.80,309.43,-1.35 636.40,309.43,-1.35 635.96,311.65,-1.35 635.40,312.43,-1.35 634.63,312.98,-1.35 633.63,313.32,-1.35 632.40,313.43,-1.35 632.40,319.83,-1.35 634.63,320.27,-1.35 635.40,320.83,-1.35 635.96,321.60,-1.35 636.29,322.60,-1.35">
        <request index="0" response="00000000" foes="00001000" cont="0"/>
        <request index="1" response="00000000" foes="11001000" cont="0"/>
        <request index="2" response="00100000" foes="00100000" cont="0"/>
        <request index="3" response="00100011" foes="00100011" cont="0"/>
        <request index="4" response="00000000" foes="10000000" cont="0"/>
        <request index="5" response="00000000" foes="10001100" cont="0"/>
        <request index="6" response="00000010" foes="00000010" cont="0"/>
        <request index="7" response="00110010" foes="00110010" cont="0"/>
    </junction>
    <junction id="CA" type="traffic_light" x="956.23" y="316.63" z="-1.35" incLanes="C2CA_0" intLanes=":CA_0_0" shape="956.23,316.63,-1.35 956.23,313.43,-1.35 956.23,316.63,-1.35">
        <request index="0" response="0" foes="0" cont="0"/>
    </junction>
    <junction id="CB" type="traffic_light" x="639.60" y="0.00" z="-1.35" incLanes="C2CB_0" intLanes=":CB_0_0" shape="639.60,0.00,-1.35 636.40,0.00,-1.35 639.60,0.00,-1.35">
        <request index="0" response="0" foes="0" cont="0"/>
    </junction>
    <junction id="CC" type="traffic_light" x="322.98" y="316.63" z="-1.35" incLanes="C2CC_0" intLanes=":CC_0_0" shape="322.98,316.63,-1.35 322.98,319.83,-1.35 322.98,316.63,-1.35">
        <request index="0" response="0" foes="0" cont="0"/>
    </junction>
    <junction id="D" type="traffic_light" x="319.80" y="633.25" z="6.53" incLanes="DC2D_0 TL2D_0 DA2D_0 DB2D_0" intLanes=":D_0_0 :D_1_0 :D_2_0 :D_3_0 :D_4_0 :D_5_0 :D_6_0 :D_7_0" shape="316.60,640.45,6.53 323.00,640.45,6.53 323.45,638.23,6.53 324.00,637.45,6.53 324.78,636.90,6.53 325.78,636.57,6.53 327.00,636.45,6.53 327.00,630.05,6.53 324.78,629.61,6.53 324.00,629.05,6.53 323.45,628.28,6.53 323.11,627.28,6.53 323.00,626.05,6.53 316.60,626.05,6.53 316.16,628.28,6.53 315.60,629.05,6.53 314.82,629.61,6.53 313.82,629.94,6.53 312.60,630.05,6.53 312.60,636.45,6.53 314.82,636.90,6.53 315.60,637.45,6.53 316.16,638.23,6.53 316.49,639.23,6.53">
        <request index="0" response="00000000" foes="00001000" cont="0"/>
        <request index="1" response="00000000" foes="11001000" cont="0"/>
        <request index="2" response="00100000" foes="00100000" cont="0"/>
        <request index="3" response="00100011" foes="00100011" cont="0"/>
        <request index="4" response="00000000" foes="10000000" cont="0"/>
        <request index="5" response="00000000" foes="10001100" cont="0"/>
        <request index="6" response="00000010" foes="00000010" cont="0"/>
        <request index="7" response="00110010" foes="00110010" cont="0"/>
    </junction>
    <junction id="DA" type="traffic_light" x="319.80" y="313.45" z="6.53" incLanes="D2DA_0" intLanes=":DA_0_0" shape="319.80,313.45,6.53 316.60,313.45,6.53 319.80,313.45,6.53">
        <request index="0" response="0" foes="0" cont="0"/>
    </junction>
    <junction id="DB" type="traffic_light" x="0.00" y="633.25" z="6.53" incLanes="D2DB_0" intLanes=":DB_0_0" shape="0.00,633.25,6.53 0.00,636.45,6.53 0.00,633.25,6.53">
        <request index="0" response="0" foes="0" cont="0"/>
    </junction>
    <junction id="DC" type="traffic_light" x="319.80" y="953.06" z="6.53" incLanes="D2DC_0" intLanes=":DC_0_0" shape="319.80,953.06,6.53 323.00,953.06,6.53 319.80,953.06,6.53">
        <request index="0" response="0" foes="0" cont="0"/>
    </junction>
    <junction id="TL" type="traffic_light_right_on_red" x="639.60" y="633.25" incLanes="A2TL_0 B2TL_0 C2TL_0 D2TL_0" intLanes=":TL_0_0 :TL_1_0 :TL_2_0 :TL_3_0 :TL_4_0 :TL_5_0 :TL_6_0 :TL_7_0" shape="636.40,640.45 642.80,640.45 643.25,638.23 643.80,637.45 644.58,636.90 645.58,636.57 646.80,636.45 646.80,630.05 644.58,629.61 643.80,629.05 643.25,628.28 642.91,627.28 642.80,626.05 636.40,626.05 635.96,628.28 635.40,629.05 634.63,629.61 633.63,629.94 632.40,630.05 632.40,636.45 634.63,636.90 635.40,637.45 635.96,638.23 636.29,639.23">
        <request index="0" response="00001000" foes="00001000" cont="0"/>
        <request index="1" response="11001000" foes="11001000" cont="0"/>
        <request index="2" response="00100000" foes="00100000" cont="0"/>