<?xml version="1.0" encoding="UTF-8"?>

<!-- generated on 2022-10-11 17:11:06 by Eclipse SUMO netconvert Version 1.14.1
<configuration xmlns:xsi="http://www.w3.org/2001/XMLSchema-instance" xsi:noNamespaceSchemaLocation="http://sumo.dlr.de/xsd/netconvertConfiguration.xsd">

    <input>
        <node-files value="../data/salt-lake-city/nodes.nod.xml"/>
        <edge-files value="../data/salt-lake-city/edges.edg.xml"/>
        <connection-files value="../data/salt-lake-city/connections.con.xml"/>
    </input>

    <output>
        <output-file value="../data/salt-lake-city/sumo/net/303.net.xml"/>
    </output>

    <tls_building>
        <tls.minor-left.max-speed value="1"/>
    </tls_building>

    <report>
        <verbose value="true"/>
    </report>

</configuration>
-->

<net version="1.9" junctionCornerDetail="5" limitTurnSpeed="5.50" xmlns:xsi="http://www.w3.org/2001/XMLSchema-instance" xsi:noNamespaceSchemaLocation="http://sumo.dlr.de/xsd/net_file.xsd">

    <location netOffset="4238.94,2540.33" convBoundary="0.00,0.00,5509.10,4659.80" origBoundary="-4238.94,-2540.33,1270.17,2119.47" projParameter="!"/>

    <edge id=":A_0" function="internal">
        <lane id=":A_0_0" index="0" speed="6.51" length="9.03" shape="4230.94,3581.20,0.31 4230.59,3578.75,0.31 4229.54,3577.00,0.31 4227.79,3575.95,0.31 4225.34,3575.60,0.31"/>
    </edge>
    <edge id=":A_1" function="internal">
        <lane id=":A_1_0" index="0" speed="50.00" length="27.20" shape="4230.94,3581.20,0.31 4230.94,3554.00,0.31"/>
        <lane id=":A_1_1" index="1" speed="50.00" length="27.20" shape="4234.14,3581.20,0.31 4234.14,3554.00,0.31"/>
        <lane id=":A_1_2" index="2" speed="50.00" length="27.20" shape="4237.34,3581.20,0.31 4237.34,3554.00,0.31"/>
    </edge>
    <edge id=":A_4" function="internal">
        <lane id=":A_4_0" index="0" speed="10.36" length="5.01" shape="4237.34,3581.20,0.31 4238.05,3576.24,0.31"/>
    </edge>
    <edge id=":A_20" function="internal">
        <lane id=":A_20_0" index="0" speed="10.36" length="19.50" shape="4238.05,3576.24,0.31 4238.29,3574.55,0.31 4241.14,3569.80,0.31 4245.89,3566.95,0.31 4252.54,3566.00,0.31"/>
    </edge>
    <edge id=":A_5" function="internal">
        <lane id=":A_5_0" index="0" speed="6.51" length="9.03" shape="4252.54,3575.60,0.31 4250.09,3575.95,0.31 4248.34,3577.00,0.31 4247.29,3578.75,0.31 4246.94,3581.20,0.31"/>
    </edge>
    <edge id=":A_6" function="internal">
        <lane id=":A_6_0" index="0" speed="50.00" length="27.20" shape="4252.54,3575.60,0.31 4225.34,3575.60,0.31"/>
        <lane id=":A_6_1" index="1" speed="50.00" length="27.20" shape="4252.54,3572.40,0.31 4225.34,3572.40,0.31"/>
        <lane id=":A_6_2" index="2" speed="50.00" length="27.20" shape="4252.54,3569.20,0.31 4225.34,3569.20,0.31"/>
    </edge>
    <edge id=":A_9" function="internal">
        <lane id=":A_9_0" index="0" speed="10.36" length="5.01" shape="4252.54,3569.20,0.31 4247.57,3568.49,0.31"/>
    </edge>
    <edge id=":A_21" function="internal">
        <lane id=":A_21_0" index="0" speed="10.36" length="19.50" shape="4247.57,3568.49,0.31 4245.89,3568.25,0.31 4241.14,3565.40,0.31 4238.29,3560.65,0.31 4237.34,3554.00,0.31"/>
    </edge>
    <edge id=":A_10" function="internal">
        <lane id=":A_10_0" index="0" speed="6.51" length="9.03" shape="4246.94,3554.00,0.31 4247.29,3556.45,0.31 4248.34,3558.20,0.31 4250.09,3559.25,0.31 4252.54,3559.60,0.31"/>
    </edge>
    <edge id=":A_11" function="internal">
        <lane id=":A_11_0" index="0" speed="50.00" length="27.20" shape="4246.94,3554.00,0.31 4246.94,3581.20,0.31"/>
        <lane id=":A_11_1" index="1" speed="50.00" length="27.20" shape="4243.74,3554.00,0.31 4243.74,3581.20,0.31"/>
        <lane id=":A_11_2" index="2" speed="50.00" length="27.20" shape="4240.54,3554.00,0.31 4240.54,3581.20,0.31"/>
    </edge>
    <edge id=":A_14" function="internal">
        <lane id=":A_14_0" index="0" speed="10.36" length="5.01" shape="4240.54,3554.00,0.31 4239.83,3558.96,0.31"/>
    </edge>
    <edge id=":A_22" function="internal">
        <lane id=":A_22_0" index="0" speed="10.36" length="19.50" shape="4239.83,3558.96,0.31 4239.59,3560.65,0.31 4236.74,3565.40,0.31 4231.99,3568.25,0.31 4225.34,3569.20,0.31"/>
    </edge>
    <edge id=":A_15" function="internal">
        <lane id=":A_15_0" index="0" speed="6.51" length="9.03" shape="4225.34,3559.60,0.31 4227.79,3559.25,0.31 4229.54,3558.20,0.31 4230.59,3556.45,0.31 4230.94,3554.00,0.31"/>
    </edge>
    <edge id=":A_16" function="internal">
        <lane id=":A_16_0" index="0" speed="50.00" length="27.20" shape="4225.34,3559.60,0.31 4252.54,3559.60,0.31"/>
        <lane id=":A_16_1" index="1" speed="50.00" length="27.20" shape="4225.34,3562.80,0.31 4252.54,3562.80,0.31"/>
        <lane id=":A_16_2" index="2" speed="50.00" length="27.20" shape="4225.34,3566.00,0.31 4252.54,3566.00,0.31"/>
    </edge>
    <edge id=":A_19" function="internal">
        <lane id=":A_19_0" index="0" speed="10.36" length="5.01" shape="4225.34,3566.00,0.31 4230.30,3566.71,0.31"/>
    </edge>
    <edge id=":A_23" function="internal">
        <lane id=":A_23_0" index="0" speed="10.36" length="19.50" shape="4230.30,3566.71,0.31 4231.99,3566.95,0.31 4236.74,3569.80,0.31 4239.59,3574.55,0.31 4240.54,3581.20,0.31"/>
    </edge>
    <edge id=":AA_0" function="internal">
        <lane id=":AA_0_0" index="0" speed="3.65" length="4.67" shape="3211.67,3569.20,0.31 3210.47,3568.40,0.31 3210.07,3567.60,0.31 3210.47,3566.80,0.31 3211.67,3566.00,0.31"/>
    </edge>
    <edge id=":AB_0" function="internal">
        <lane id=":AB_0_0" index="0" speed="3.65" length="4.67" shape="4240.54,4594.87,0.31 4239.74,4596.07,0.31 4238.94,4596.47,0.31 4238.14,4596.07,0.31 4237.34,4594.87,0.31"/>
    </edge>
    <edge id=":AC_0" function="internal">
        <lane id=":AC_0_0" index="0" speed="3.65" length="4.67" shape="5266.20,3566.00,0.31 5267.40,3566.80,0.31 5267.80,3567.60,0.31 5267.40,3568.40,0.31 5266.20,3569.20,0.31"/>
    </edge>
    <edge id=":B_0" function="internal">
        <lane id=":B_0_0" index="0" speed="6.51" length="9.03" shape="4449.95,2547.53,-3.37 4449.60,2545.08,-3.34 4448.55,2543.33,-3.31 4446.80,2542.28,-3.29 4444.35,2541.93,-3.26"/>
    </edge>
    <edge id=":B_1" function="internal">
        <lane id=":B_1_0" index="0" speed="25.00" length="14.40" shape="4449.95,2547.53,-3.37 4449.95,2533.13,-3.37"/>
    </edge>
    <edge id=":B_2" function="internal">
        <lane id=":B_2_0" index="0" speed="6.51" length="9.03" shape="4458.75,2541.93,-3.37 4456.30,2542.28,-3.37 4454.55,2543.33,-3.37 4453.50,2545.08,-3.37 4453.15,2547.53,-3.37"/>
    </edge>
    <edge id=":B_3" function="internal">
        <lane id=":B_3_0" index="0" speed="25.00" length="14.40" shape="4458.75,2541.93,-3.37 4444.35,2541.93,-3.26"/>
    </edge>
    <edge id=":B_4" function="internal">
        <lane id=":B_4_0" index="0" speed="6.51" length="9.03" shape="4453.15,2533.13,-3.37 4453.50,2535.58,-3.37 4454.55,2537.33,-3.37 4456.30,2538.38,-3.37 4458.75,2538.73,-3.37"/>
    </edge>
    <edge id=":B_5" function="internal">
        <lane id=":B_5_0" index="0" speed="25.00" length="14.40" shape="4453.15,2533.13,-3.37 4453.15,2547.53,-3.37"/>
    </edge>
    <edge id=":B_6" function="internal">
        <lane id=":B_6_0" index="0" speed="6.51" length="9.03" shape="4444.35,2538.73,-3.25 4446.80,2538.38,-3.28 4448.55,2537.33,-3.31 4449.60,2535.58,-3.34 4449.95,2533.13,-3.37"/>
    </edge>
    <edge id=":B_7" function="internal">
        <lane id=":B_7_0" index="0" speed="25.00" length="14.40" shape="4444.35,2538.73,-3.25 4458.75,2538.73,-3.37"/>
    </edge>
    <edge id=":BA_0" function="internal">
        <lane id=":BA_0_0" index="0" speed="3.65" length="4.67" shape="4453.15,2752.94,-3.37 4452.35,2754.14,-3.37 4451.55,2754.54,-3.37 4450.75,2754.14,-3.37 4449.95,2752.94,-3.37"/>
    </edge>
    <edge id=":BB_0" function="internal">
        <lane id=":BB_0_0" index="0" speed="3.65" length="4.67" shape="4664.16,2538.73,-3.37 4665.36,2539.53,-3.37 4665.76,2540.33,-3.37 4665.36,2541.13,-3.37 4664.16,2541.93,-3.37"/>
    </edge>
    <edge id=":BC_0" function="internal">
        <lane id=":BC_0_0" index="0" speed="3.65" length="4.67" shape="4449.95,2327.72,-3.37 4450.75,2326.52,-3.37 4451.55,2326.12,-3.37 4452.35,2326.52,-3.37 4453.15,2327.72,-3.37"/>
    </edge>
    <edge id=":C_0" function="internal">
        <lane id=":C_0_0" index="0" speed="6.51" length="9.03" shape="4230.94,1283.77,-0.38 4230.59,1281.32,-0.38 4229.54,1279.57,-0.39 4227.79,1278.52,-0.39 4225.34,1278.17,-0.39"/>
    </edge>
    <edge id=":C_1" function="internal">
        <lane id=":C_1_0" index="0" speed="50.00" length="27.20" shape="4230.94,1283.77,-0.38 4230.94,1256.57,-0.39"/>
        <lane id=":C_1_1" index="1" speed="50.00" length="27.20" shape="4234.14,1283.77,-0.38 4234.14,1256.57,-0.39"/>
        <lane id=":C_1_2" index="2" speed="50.00" length="27.20" shape="4237.34,1283.77,-0.38 4237.34,1256.57,-0.39"/>
    </edge>
    <edge id=":C_4" function="internal">
        <lane id=":C_4_0" index="0" speed="10.36" length="5.01" shape="4237.34,1283.77,-0.38 4238.05,1278.80,-0.38"/>
    </edge>
    <edge id=":C_20" function="internal">
        <lane id=":C_20_0" index="0" speed="10.36" length="19.50" shape="4238.05,1278.80,-0.38 4238.29,1277.12,-0.38 4241.14,1272.37,-0.39 4245.89,1269.52,-0.39 4252.54,1268.57,-0.39"/>
    </edge>
    <edge id=":C_5" function="internal">
        <lane id=":C_5_0" index="0" speed="6.51" length="9.03" shape="4252.54,1278.17,-0.39 4250.09,1278.52,-0.39 4248.34,1279.57,-0.39 4247.29,1281.32,-0.38 4246.94,1283.77,-0.38"/>
    </edge>
    <edge id=":C_6" function="internal">
        <lane id=":C_6_0" index="0" speed="50.00" length="27.20" shape="4252.54,1278.17,-0.39 4225.34,1278.17,-0.39"/>
        <lane id=":C_6_1" index="1" speed="50.00" length="27.20" shape="4252.54,1274.97,-0.39 4225.34,1274.97,-0.39"/>
        <lane id=":C_6_2" index="2" speed="50.00" length="27.20" shape="4252.54,1271.77,-0.39 4225.34,1271.77,-0.39"/>
    </edge>
    <edge id=":C_9" function="internal">
        <lane id=":C_9_0" index="0" speed="10.36" length="5.01" shape="4252.54,1271.77,-0.39 4247.57,1271.06,-0.39"/>
    </edge>
    <edge id=":C_21" function="internal">
        <lane id=":C_21_0" index="0" speed="10.36" length="19.50" shape="4247.57,1271.06,-0.39 4245.89,1270.82,-0.39 4241.14,1267.97,-0.39 4238.29,1263.22,-0.39 4237.34,1256.57,-0.39"/>
    </edge>
    <edge id=":C_10" function="internal">
        <lane id=":C_10_0" index="0" speed="6.51" length="9.03" shape="4246.94,1256.57,-0.39 4247.29,1259.02,-0.39 4248.34,1260.77,-0.39 4250.09,1261.82,-0.39 4252.54,1262.17,-0.39"/>
    </edge>
    <edge id=":C_11" function="internal">
        <lane id=":C_11_0" index="0" speed="50.00" length="27.20" shape="4246.94,1256.57,-0.39 4246.94,1283.77,-0.38"/>
        <lane id=":C_11_1" index="1" speed="50.00" length="27.20" shape="4243.74,1256.57,-0.39 4243.74,1283.77,-0.38"/>
        <lane id=":C_11_2" index="2" speed="50.00" length="27.20" shape="4240.54,1256.57,-0.39 4240.54,1283.77,-0.38"/>
    </edge>
    <edge id=":C_14" function="internal">
        <lane id=":C_14_0" index="0" speed="10.36" length="5.01" shape="4240.54,1256.57,-0.39 4239.83,1261.53,-0.39"/>
    </edge>
    <edge id=":C_22" function="internal">
        <lane id=":C_22_0" index="0" speed="10.36" length="19.50" shape="4239.83,1261.53,-0.39 4239.59,1263.22,-0.39 4236.74,1267.97,-0.39 4231.99,1270.82,-0.39 4225.34,1271.77,-0.39"/>
    </edge>
    <edge id=":C_15" function="internal">
        <lane id=":C_15_0" index="0" speed="6.51" length="9.03" shape="4225.34,1262.17,-0.39 4227.79,1261.82,-0.39 4229.54,1260.77,-0.39 4230.59,1259.02,-0.39 4230.94,1256.57,-0.39"/>
    </edge>
    <edge id=":C_16" function="internal">
        <lane id=":C_16_0" index="0" speed="50.00" length="27.20" shape="4225.34,1262.17,-0.39 4252.54,1262.17,-0.39"/>
        <lane id=":C_16_1" index="1" speed="50.00" length="27.20" shape="4225.34,1265.37,-0.39 4252.54,1265.37,-0.39"/>
        <lane id=":C_16_2" index="2" speed="50.00" length="27.20" shape="4225.34,1268.57,-0.39 4252.54,1268.57,-0.39"/>
    </edge>
    <edge id=":C_19" function="internal">
        <lane id=":C_19_0" index="0" speed="10.36" length="5.01" shape="4225.34,1268.57,-0.39 4230.30,1269.28,-0.39"/>
    </edge>
    <edge id=":C_23" function="internal">
        <lane id=":C_23_0" index="0" speed="10.36" length="19.50" shape="4230.30,1269.28,-0.39 4231.99,1269.52,-0.39 4236.74,1272.37,-0.39 4239.59,1277.12,-0.38 4240.54,1283.77,-0.38"/>
    </edge>
    <edge id=":CA_0" function="internal">
        <lane id=":CA_0_0" index="0" speed="3.65" length="4.67" shape="5509.10,1268.57,-0.39 5510.30,1269.37,-0.39 5510.70,1270.17,-0.39 5510.30,1270.97,-0.39 5509.10,1271.77,-0.39"/>
    </edge>
    <edge id=":CB_0" function="internal">
        <lane id=":CB_0_0" index="0" speed="3.65" length="4.67" shape="4237.34,0.00,-0.39 4238.14,-1.20,-0.39 4238.94,-1.60,-0.39 4239.74,-1.20,-0.39 4240.54,0.00,-0.39"/>
    </edge>
    <edge id=":CC_0" function="internal">
        <lane id=":CC_0_0" index="0" speed="3.65" length="4.67" shape="2968.77,1271.77,-0.39 2967.57,1270.97,-0.39 2967.17,1270.17,-0.39 2967.57,1269.37,-0.39 2968.77,1268.57,-0.39"/>
    </edge>
    <edge id=":D_0" function="internal">
        <lane id=":D_0_0" index="0" speed="6.51" length="9.03" shape="2117.87,2547.53,-33.59 2117.52,2545.08,-33.59 2116.47,2543.33,-33.59 2114.72,2542.28,-33.59 2112.27,2541.93,-33.59"/>
    </edge>
    <edge id=":D_1" function="internal">
        <lane id=":D_1_0" index="0" speed="25.00" length="14.40" shape="2117.87,2547.53,-33.59 2117.87,2533.13,-33.59"/>
    </edge>
    <edge id=":D_2" function="internal">
        <lane id=":D_2_0" index="0" speed="6.51" length="9.03" shape="2126.67,2541.93,-33.48 2124.22,2542.28,-33.51 2122.47,2543.33,-33.53 2121.42,2545.08,-33.56 2121.07,2547.53,-33.59"/>
    </edge>
    <edge id=":D_3" function="internal">
        <lane id=":D_3_0" index="0" speed="25.00" length="14.40" shape="2126.67,2541.93,-33.48 2112.27,2541.93,-33.59"/>
    </edge>
    <edge id=":D_4" function="internal">
        <lane id=":D_4_0" index="0" speed="6.51" length="9.03" shape="2121.07,2533.13,-33.59 2121.42,2535.58,-33.56 2122.47,2537.33,-33.53 2124.22,2538.38,-33.51 2126.67,2538.73,-33.48"/>
    </edge>
    <edge id=":D_5" function="internal">
        <lane id=":D_5_0" index="0" speed="25.00" length="14.40" shape="2121.07,2533.13,-33.59 2121.07,2547.53,-33.59"/>
    </edge>
    <edge id=":D_6" function="internal">
        <lane id=":D_6_0" index="0" speed="6.51" length="9.03" shape="2112.27,2538.73,-33.59 2114.72,2538.38,-33.59 2116.47,2537.33,-33.59 2117.52,2535.58,-33.59 2117.87,2533.13,-33.59"/>
    </edge>
    <edge id=":D_7" function="internal">
        <lane id=":D_7_0" index="0" speed="25.00" length="14.40" shape="2112.27,2538.73,-33.59 2126.67,2538.73,-33.48"/>
    </edge>
    <edge id=":DA_0" function="internal">
        <lane id=":DA_0_0" index="0" speed="3.65" length="4.67" shape="2117.87,420.87,-33.59 2118.67,419.67,-33.59 2119.47,419.27,-33.59 2120.27,419.67,-33.59 2121.07,420.87,-33.59"/>
    </edge>
    <edge id=":DB_0" function="internal">
        <lane id=":DB_0_0" index="0" speed="3.65" length="4.67" shape="-0.00,2541.93,-33.59 -1.20,2541.13,-33.59 -1.60,2540.33,-33.59 -1.20,2539.53,-33.59 -0.00,2538.73,-33.59"/>
    </edge>
    <edge id=":DC_0" function="internal">
        <lane id=":DC_0_0" index="0" speed="3.65" length="4.67" shape="2121.07,4659.80,-33.59 2120.27,4661.00,-33.59 2119.47,4661.40,-33.59 2118.67,4661.00,-33.59 2117.87,4659.80,-33.59"/>
    </edge>
    <edge id=":TL_0" function="internal">
        <lane id=":TL_0_0" index="0" speed="6.51" length="9.03" shape="4230.94,2547.53,0.00 4230.59,2545.08,0.00 4229.54,2543.33,0.00 4227.79,2542.28,0.00 4225.34,2541.93"/>
    </edge>
    <edge id=":TL_1" function="internal">
        <lane id=":TL_1_0" index="0" speed="50.00" length="14.40" shape="4230.94,2547.53,0.00 4230.94,2533.13,-0.00"/>
        <lane id=":TL_1_1" index="1" speed="50.00" length="14.40" shape="4234.14,2547.53,0.00 4234.14,2533.13,-0.00"/>
        <lane id=":TL_1_2" index="2" speed="50.00" length="14.40" shape="4237.34,2547.53,0.00 4237.34,2533.13,-0.00"/>
    </edge>
    <edge id=":TL_4" function="internal">
        <lane id=":TL_4_0" index="0" speed="9.32" length="3.03" shape="4237.34,2547.53,0.00 4238.06,2544.59,0.00"/>
    </edge>
    <edge id=":TL_14" function="internal">
        <lane id=":TL_14_0" index="0" speed="9.32" length="16.60" shape="4238.06,2544.59,0.00 4238.29,2543.68,0.00 4241.14,2540.93,0.00 4245.89,2539.28,0.00 4252.54,2538.73"/>
    </edge>
    <edge id=":TL_5" function="internal">
        <lane id=":TL_5_0" index="0" speed="6.51" length="9.03" shape="4252.54,2541.93 4250.09,2542.28,0.00 4248.34,2543.33,0.00 4247.29,2545.08,0.00 4246.94,2547.53,0.00"/>
    </edge>
    <edge id=":TL_6" function="internal">
        <lane id=":TL_6_0" index="0" speed="25.00" length="27.20" shape="4252.54,2541.93 4225.34,2541.93"/>
    </edge>
    <edge id=":TL_7" function="internal">
        <lane id=":TL_7_0" index="0" speed="6.51" length="9.03" shape="4246.94,2533.13,-0.00 4247.29,2535.58,-0.00 4248.34,2537.33,-0.00 4250.09,2538.38,-0.00 4252.54,2538.73"/>
    </edge>
    <edge id=":TL_8" function="internal">
        <lane id=":TL_8_0" index="0" speed="50.00" length="14.40" shape="4246.94,2533.13,-0.00 4246.94,2547.53,0.00"/>
        <lane id=":TL_8_1" index="1" speed="50.00" length="14.40" shape="4243.74,2533.13,-0.00 4243.74,2547.53,0.00"/>
        <lane id=":TL_8_2" index="2" speed="50.00" length="14.40" shape="4240.54,2533.13,-0.00 4240.54,2547.53,0.00"/>
    </edge>
    <edge id=":TL_11" function="internal">
        <lane id=":TL_11_0" index="0" speed="9.32" length="3.03" shape="4240.54,2533.13,-0.00 4239.81,2536.08,-0.00"/>
    </edge>
    <edge id=":TL_15" function="internal">
        <lane id=":TL_15_0" index="0" speed="9.32" length="16.60" shape="4239.81,2536.08,-0.00 4239.59,2536.98,-0.00 4236.74,2539.73,-0.00 4231.99,2541.38,-0.00 4225.34,2541.93"/>
    </edge>
    <edge id=":TL_12" function="internal">
        <lane id=":TL_12_0" index="0" speed="6.51" length="9.03" shape="4225.34,2538.73 4227.79,2538.38,-0.00 4229.54,2537.33,-0.00 4230.59,2535.58,-0.00 4230.94,2533.13,-0.00"/>
    </edge>
    <edge id=":TL_13" function="internal">
        <lane id=":TL_13_0" index="0" speed="25.00" length="27.20" shape="4225.34,2538.73 4252.54,2538.73"/>
    </edge>

    <edge id="A2AA" from="A" to="AA" priority="-1">
        <lane id="A2AA_0" index="0" speed="50.00" length="1013.67" shape="4225.34,3575.60,0.31 3211.67,3575.60,0.31"/>
        <lane id="A2AA_1" index="1" speed="50.00" length="1013.67" shape="4225.34,3572.40,0.31 3211.67,3572.40,0.31"/>
        <lane id="A2AA_2" index="2" speed="50.00" length="1013.67" shape="4225.34,3569.20,0.31 3211.67,3569.20,0.31"/>
    </edge>
    <edge id="A2AB" from="A" to="AB" priority="-1">
        <lane id="A2AB_0" index="0" speed="50.00" length="1013.67" shape="4246.94,3581.20,0.31 4246.94,4594.87,0.31"/>
        <lane id="A2AB_1" index="1" speed="50.00" length="1013.67" shape="4243.74,3581.20,0.31 4243.74,4594.87,0.31"/>
        <lane id="A2AB_2" index="2" speed="50.00" length="1013.67" shape="4240.54,3581.20,0.31 4240.54,4594.87,0.31"/>
    </edge>
    <edge id="A2AC" from="A" to="AC" priority="-1">
        <lane id="A2AC_0" index="0" speed="50.00" length="1013.67" shape="4252.54,3559.60,0.31 5266.20,3559.60,0.31"/>
        <lane id="A2AC_1" index="1" speed="50.00" length="1013.67" shape="4252.54,3562.80,0.31 5266.20,3562.80,0.31"/>
        <lane id="A2AC_2" index="2" speed="50.00" length="1013.67" shape="4252.54,3566.00,0.31 5266.20,3566.00,0.31"/>
    </edge>
    <edge id="A2TL" from="A" to="TL" priority="-1">
        <lane id="A2TL_0" index="0" speed="50.00" length="1006.47" shape="4230.94,3554.00,0.31 4230.94,2547.53,0.00"/>
        <lane id="A2TL_1" index="1" speed="50.00" length="1006.47" shape="4234.14,3554.00,0.31 4234.14,2547.53,0.00"/>
        <lane id="A2TL_2" index="2" speed="50.00" length="1006.47" shape="4237.34,3554.00,0.31 4237.34,2547.53,0.00"/>
    </edge>
    <edge id="AA2A" from="AA" to="A" priority="-1">
        <lane id="AA2A_0" index="0" speed="50.00" length="1013.67" shape="3211.67,3559.60,0.31 4225.34,3559.60,0.31"/>
        <lane id="AA2A_1" index="1" speed="50.00" length="1013.67" shape="3211.67,3562.80,0.31 4225.34,3562.80,0.31"/>
        <lane id="AA2A_2" index="2" speed="50.00" length="1013.67" shape="3211.67,3566.00,0.31 4225.34,3566.00,0.31"/>
    </edge>
    <edge id="AB2A" from="AB" to="A" priority="-1">
        <lane id="AB2A_0" index="0" speed="50.00" length="1013.67" shape="4230.94,4594.87,0.31 4230.94,3581.20,0.31"/>
        <lane id="AB2A_1" index="1" speed="50.00" length="1013.67" shape="4234.14,4594.87,0.31 4234.14,3581.20,0.31"/>
        <lane id="AB2A_2" index="2" speed="50.00" length="1013.67" shape="4237.34,4594.87,0.31 4237.34,3581.20,0.31"/>
    </edge>
    <edge id="AC2A" from="AC" to="A" priority="-1">
        <lane id="AC2A_0" index="0" speed="50.00" length="1013.67" shape="5266.20,3575.60,0.31 4252.54,3575.60,0.31"/>
        <lane id="AC2A_1" index="1" speed="50.00" length="1013.67" shape="5266.20,3572.40,0.31 4252.54,3572.40,0.31"/>
        <lane id="AC2A_2" index="2" speed="50.00" length="1013.67" shape="5266.20,3569.20,0.31 4252.54,3569.20,0.31"/>
    </edge>
    <edge id="B2BA" from="B" to="BA" priority="-1">
        <lane id="B2BA_0" index="0" speed="25.00" length="205.41" shape="4453.15,2547.53,-3.37 4453.15,2752.94,-3.37"/>
    </edge>
    <edge id="B2BB" from="B" to="BB" priority="-1">
        <lane id="B2BB_0" index="0" speed="25.00" length="205.41" shape="4458.75,2538.73,-3.37 4664.16,2538.73,-3.37"/>
    </edge>
    <edge id="B2BC" from="B" to="BC" priority="-1">
        <lane id="B2BC_0" index="0" speed="25.00" length="205.41" shape="4449.95,2533.13,-3.37 4449.95,2327.72,-3.37"/>
    </edge>
    <edge id="B2TL" from="B" to="TL" priority="-1">
        <lane id="B2TL_0" index="0" speed="25.00" length="191.84" shape="4444.35,2541.93,-3.26 4252.54,2541.93"/>
    </edge>
    <edge id="BA2B" from="BA" to="B" priority="-1">
        <lane id="BA2B_0" index="0" speed="25.00" length="205.41" shape="4449.95,2752.94,-3.37 4449.95,2547.53,-3.37"/>
    </edge>
    <edge id="BB2B" from="BB" to="B" priority="-1">
        <lane id="BB2B_0" index="0" speed="25.00" length="205.41" shape="4664.16,2541.93,-3.37 4458.75,2541.93,-3.37"/>
    </edge>
    <edge id="BC2B" from="BC" to="B" priority="-1">
        <lane id="BC2B_0" index="0" speed="25.00" length="205.41" shape="4453.15,2327.72,-3.37 4453.15,2533.13,-3.37"/>
    </edge>
    <edge id="C2CA" from="C" to="CA" priority="-1">
        <lane id="C2CA_0" index="0" speed="50.00" length="1256.57" shape="4252.54,1262.17,-0.39 5509.10,1262.17,-0.39"/>
        <lane id="C2CA_1" index="1" speed="50.00" length="1256.57" shape="4252.54,1265.37,-0.39 5509.10,1265.37,-0.39"/>
        <lane id="C2CA_2" index="2" speed="50.00" length="1256.57" shape="4252.54,1268.57,-0.39 5509.10,1268.57,-0.39"/>
    </edge>
    <edge id="C2CB" from="C" to="CB" priority="-1">
        <lane id="C2CB_0" index="0" speed="50.00" length="1256.57" shape="4230.94,1256.57,-0.39 4230.94,0.00,-0.39"/>
        <lane id="C2CB_1" index="1" speed="50.00" length="1256.57" shape="4234.14,1256.57,-0.39 4234.14,0.00,-0.39"/>
        <lane id="C2CB_2" index="2" speed="50.00" length="1256.57" shape="4237.34,1256.57,-0.39 4237.34,0.00,-0.39"/>
    </edge>
    <edge id="C2CC" from="C" to="CC" priority="-1">
        <lane id="C2CC_0" index="0" speed="50.00" length="1256.57" shape="4225.34,1278.17,-0.39 2968.77,1278.17,-0.39"/>
        <lane id="C2CC_1" index="1" speed="50.00" length="1256.57" shape="4225.34,1274.97,-0.39 2968.77,1274.97,-0.39"/>
        <lane id="C2CC_2" index="2" speed="50.00" length="1256.57" shape="4225.34,1271.77,-0.39 2968.77,1271.77,-0.39"/>
    </edge>
    <edge id="C2TL" from="C" to="TL" priority="-1">
        <lane id="C2TL_0" index="0" speed="50.00" length="1249.37" shape="4246.94,1283.77,-0.38 4246.94,2533.13,-0.00"/>
        <lane id="C2TL_1" index="1" speed="50.00" length="1249.37" shape="4243.74,1283.77,-0.38 4243.74,2533.13,-0.00"/>
        <lane id="C2TL_2" index="2" speed="50.00" length="1249.37" shape="4240.54,1283.77,-0.38 4240.54,2533.13,-0.00"/>
    </edge>
    <edge id="CA2C" from="CA" to="C" priority="-1">
        <lane id="CA2C_0" index="0" speed="50.00" length="1256.57" shape="5509.10,1278.17,-0.39 4252.54,1278.17,-0.39"/>
        <lane id="CA2C_1" index="1" speed="50.00" length="1256.57" shape="5509.10,1274.97,-0.39 4252.54,1274.97,-0.39"/>
        <lane id="CA2C_2" index="2" speed="50.00" length="1256.57" shape="5509.10,1271.77,-0.39 4252.54,1271.77,-0.39"/>
    </edge>
    <edge id="CB2C" from="CB" to="C" priority="-1">
        <lane id="CB2C_0" index="0" speed="50.00" length="1256.57" shape="4246.94,0.00,-0.39 4246.94,1256.57,-0.39"/>
        <lane id="CB2C_1" index="1" speed="50.00" length="1256.57" shape="4243.74,0.00,-0.39 4243.74,1256.57,-0.39"/>
        <lane id="CB2C_2" index="2" speed="50.00" length="1256.57" shape="4240.54,0.00,-0.39 4240.54,1256.57,-0.39"/>
    </edge>
    <edge id="CC2C" from="CC" to="C" priority="-1">
        <lane id="CC2C_0" index="0" speed="50.00" length="1256.57" shape="2968.77,1262.17,-0.39 4225.34,1262.17,-0.39"/>
        <lane id="CC2C_1" index="1" speed="50.00" length="1256.57" shape="2968.77,1265.37,-0.39 4225.34,1265.37,-0.39"/>
        <lane id="CC2C_2" index="2" speed="50.00" length="1256.57" shape="2968.77,1268.57,-0.39 4225.34,1268.57,-0.39"/>
    </edge>
    <edge id="D2DA" from="D" to="DA" priority="-1">
        <lane id="D2DA_0" index="0" speed="25.00" length="2112.27" shape="2117.87,2533.13,-33.59 2117.87,420.87,-33.59"/>
    </edge>
    <edge id="D2DB" from="D" to="DB" priority="-1">
        <lane id="D2DB_0" index="0" speed="25.00" length="2112.27" shape="2112.27,2541.93,-33.59 -0.00,2541.93,-33.59"/>
    </edge>
    <edge id="D2DC" from="D" to="DC" priority="-1">
        <lane id="D2DC_0" index="0" speed="25.00" length="2112.27" shape="2121.07,2547.53,-33.59 2121.07,4659.80,-33.59"/>
    </edge>
    <edge id="D2TL" from="D" to="TL" priority="-1">
        <lane id="D2TL_0" index="0" speed="25.00" length="2098.94" shape="2126.67,2538.73,-33.48 4225.34,2538.73"/>
    </edge>
    <edge id="DA2D" from="DA" to="D" priority="-1">
        <lane id="DA2D_0" index="0" speed="25.00" length="2112.27" shape="2121.07,420.87,-33.59 2121.07,2533.13,-33.59"/>
    </edge>
    <edge id="DB2D" from="DB" to="D" priority="-1">
        <lane id="DB2D_0" index="0" speed="25.00" length="2112.27" shape="-0.00,2538.73,-33.59 2112.27,2538.73,-33.59"/>
    </edge>
    <edge id="DC2D" from="DC" to="D" priority="-1">
        <lane id="DC2D_0" index="0" speed="25.00" length="2112.27" shape="2117.87,4659.80,-33.59 2117.87,2547.53,-33.59"/>
    </edge>
    <edge id="TL2A" from="TL" to="A" priority="-1">
        <lane id="TL2A_0" index="0" speed="50.00" length="1006.47" shape="4246.94,2547.53,0.00 4246.94,3554.00,0.31"/>
        <lane id="TL2A_1" index="1" speed="50.00" length="1006.47" shape="4243.74,2547.53,0.00 4243.74,3554.00,0.31"/>
        <lane id="TL2A_2" index="2" speed="50.00" length="1006.47" shape="4240.54,2547.53,0.00 4240.54,3554.00,0.31"/>
    </edge>
    <edge id="TL2B" from="TL" to="B" priority="-1">
        <lane id="TL2B_0" index="0" speed="25.00" length="191.84" shape="4252.54,2538.73 4444.35,2538.73,-3.25"/>
    </edge>
    <edge id="TL2C" from="TL" to="C" priority="-1">
        <lane id="TL2C_0" index="0" speed="50.00" length="1249.37" shape="4230.94,2533.13,-0.00 4230.94,1283.77,-0.38"/>
        <lane id="TL2C_1" index="1" speed="50.00" length="1249.37" shape="4234.14,2533.13,-0.00 4234.14,1283.77,-0.38"/>
        <lane id="TL2C_2" index="2" speed="50.00" length="1249.37" shape="4237.34,2533.13,-0.00 4237.34,1283.77,-0.38"/>
    </edge>
    <edge id="TL2D" from="TL" to="D" priority="-1">
        <lane id="TL2D_0" index="0" speed="25.00" length="2098.94" shape="4225.34,2541.93 2126.67,2541.93,-33.48"/>
    </edge>

    <tlLogic id="A" type="static" programID="0" offset="0">
        <phase duration="35" state="GGGGgrrrrrGGGGgrrrrr"/>
        <phase duration="10" state="yyyyyrrrrryyyyyrrrrr"/>
        <phase duration="35" state="rrrrrGGGGgrrrrrGGGGg"/>
        <phase duration="10" state="rrrrryyyyyrrrrryyyyy"/>
    </tlLogic>
    <tlLogic id="AA" type="static" programID="0" offset="0">
        <phase duration="75" state="G"/>
        <phase duration="10" state="y"/>
        <phase duration="5"  state="r"/>
    </tlLogic>
    <tlLogic id="AB" type="static" programID="0" offset="0">
        <phase duration="75" state="G"/>
        <phase duration="10" state="y"/>
        <phase duration="5"  state="r"/>
    </tlLogic>
    <tlLogic id="AC" type="static" programID="0" offset="0">
        <phase duration="75" state="G"/>
        <phase duration="10" state="y"/>
        <phase duration="5"  state="r"/>
    </tlLogic>
    <tlLogic id="B" type="static" programID="0" offset="0">
        <phase duration="40" state="GGrrGGrr"/>
        <phase duration="5"  state="yyrryyrr"/>
        <phase duration="40" state="rrGGrrGG"/>
        <phase duration="5"  state="rryyrryy"/>
    </tlLogic>
    <tlLogic id="BA" type="static" programID="0" offset="0">
        <phase duration="80" state="G"/>
        <phase duration="5"  state="y"/>
        <phase duration="5"  state="r"/>
    </tlLogic>
    <tlLogic id="BB" type="static" programID="0" offset="0">
        <phase duration="80" state="G"/>
        <phase duration="5"  state="y"/>
        <phase duration="5"  state="r"/>
    </tlLogic>
    <tlLogic id="BC" type="static" programID="0" offset="0">
        <phase duration="80" state="G"/>
        <phase duration="5"  state="y"/>