<?xml version="1.0" encoding="UTF-8"?>

<!-- generated on 2022-10-11 16:45:21 by Eclipse SUMO netconvert Version 1.14.1
<configuration xmlns:xsi="http://www.w3.org/2001/XMLSchema-instance" xsi:noNamespaceSchemaLocation="http://sumo.dlr.de/xsd/netconvertConfiguration.xsd">

    <input>
        <node-files value="../data/salt-lake-city/nodes.nod.xml"/>
        <edge-files value="../data/salt-lake-city/edges.edg.xml"/>
        <connection-files value="../data/salt-lake-city/connections.con.xml"/>
    </input>

    <output>
        <output-file value="../data/salt-lake-city/sumo/net/304.net.xml"/>
    </output>

    <tls_building>
        <tls.minor-left.max-speed value="1"/>
    </tls_building>

    <report>
        <verbose value="true"/>
    </report>

</configuration>
-->

<net version="1.9" junctionCornerDetail="5" limitTurnSpeed="5.50" xmlns:xsi="http://www.w3.org/2001/XMLSchema-instance" xsi:noNamespaceSchemaLocation="http://sumo.dlr.de/xsd/net_file.xsd">

    <location netOffset="2269.64,4351.30" convBoundary="0.00,0.00,4445.28,5486.12" origBoundary="-2269.64,-4351.30,2175.65,1134.82" projParameter="!"/>

    <edge id=":A_0" function="internal">
        <lane id=":A_0_0" index="0" speed="6.51" length="9.03" shape="2268.04,4652.53,-4.75 2267.69,4650.08,-4.75 2266.64,4648.33,-4.75 2264.89,4647.28,-4.75 2262.44,4646.93,-4.75"/>
    </edge>
    <edge id=":A_1" function="internal">
        <lane id=":A_1_0" index="0" speed="30.00" length="14.40" shape="2268.04,4652.53,-4.75 2268.04,4638.13,-4.63"/>
    </edge>
    <edge id=":A_2" function="internal">
        <lane id=":A_2_0" index="0" speed="6.51" length="9.03" shape="2276.84,4646.93,-4.75 2274.39,4647.28,-4.75 2272.64,4648.33,-4.75 2271.59,4650.08,-4.75 2271.24,4652.53,-4.75"/>
    </edge>
    <edge id=":A_3" function="internal">
        <lane id=":A_3_0" index="0" speed="30.00" length="14.40" shape="2276.84,4646.93,-4.75 2262.44,4646.93,-4.75"/>
    </edge>
    <edge id=":A_4" function="internal">
        <lane id=":A_4_0" index="0" speed="6.51" length="9.03" shape="2271.24,4638.13,-4.63 2271.59,4640.58,-4.67 2272.64,4642.33,-4.69 2274.39,4643.38,-4.72 2276.84,4643.73,-4.75"/>
    </edge>
    <edge id=":A_5" function="internal">
        <lane id=":A_5_0" index="0" speed="30.00" length="14.40" shape="2271.24,4638.13,-4.63 2271.24,4652.53,-4.75"/>
    </edge>
    <edge id=":A_6" function="internal">
        <lane id=":A_6_0" index="0" speed="6.51" length="9.03" shape="2262.44,4643.73,-4.75 2264.89,4643.38,-4.72 2266.64,4642.33,-4.69 2267.69,4640.58,-4.67 2268.04,4638.13,-4.63"/>
    </edge>
    <edge id=":A_7" function="internal">
        <lane id=":A_7_0" index="0" speed="30.00" length="14.40" shape="2262.44,4643.73,-4.75 2276.84,4643.73,-4.75"/>
    </edge>
    <edge id=":AA_0" function="internal">
        <lane id=":AA_0_0" index="0" speed="3.65" length="4.67" shape="1975.60,4646.93,-4.75 1974.40,4646.13,-4.75 1974.00,4645.33,-4.75 1974.40,4644.53,-4.75 1975.60,4643.73,-4.75"/>
    </edge>
    <edge id=":AB_0" function="internal">
        <lane id=":AB_0_0" index="0" speed="3.65" length="4.67" shape="2271.24,4939.37,-4.75 2270.44,4940.57,-4.75 2269.64,4940.97,-4.75 2268.84,4940.57,-4.75 2268.04,4939.37,-4.75"/>
    </edge>
    <edge id=":AC_0" function="internal">
        <lane id=":AC_0_0" index="0" speed="3.65" length="4.67" shape="2563.67,4643.73,-4.75 2564.87,4644.53,-4.75 2565.27,4645.33,-4.75 2564.87,4646.13,-4.75 2563.67,4646.93,-4.75"/>
    </edge>
    <edge id=":B_0" function="internal">
        <lane id=":B_0_0" index="0" speed="6.51" length="9.03" shape="3239.86,4361.70,11.00 3239.51,4359.25,10.96 3238.46,4357.50,10.94 3236.71,4356.45,10.91 3234.26,4356.10,10.88"/>
    </edge>
    <edge id=":B_1" function="internal">
        <lane id=":B_1_0" index="0" speed="45.00" length="20.80" shape="3239.86,4361.70,11.00 3239.86,4340.90,11.00"/>
        <lane id=":B_1_1" index="1" speed="45.00" length="20.80" shape="3243.06,4361.70,11.00 3243.06,4340.90,11.00"/>
    </edge>
    <edge id=":B_3" function="internal">
        <lane id=":B_3_0" index="0" speed="9.26" length="5.01" shape="3243.06,4361.70,11.00 3243.76,4356.73,11.00"/>
    </edge>
    <edge id=":B_16" function="internal">
        <lane id=":B_16_0" index="0" speed="9.26" length="14.34" shape="3243.76,4356.73,11.00 3243.81,4356.45,11.00 3246.06,4352.70,11.00 3249.81,4350.45,11.00 3255.06,4349.70,11.00"/>
    </edge>
    <edge id=":B_4" function="internal">
        <lane id=":B_4_0" index="0" speed="6.51" length="9.03" shape="3255.06,4356.10,11.00 3252.61,4356.45,11.00 3250.86,4357.50,11.00 3249.81,4359.25,11.00 3249.46,4361.70,11.00"/>
    </edge>
    <edge id=":B_5" function="internal">
        <lane id=":B_5_0" index="0" speed="45.00" length="20.80" shape="3255.06,4356.10,11.00 3234.26,4356.10,10.88"/>
        <lane id=":B_5_1" index="1" speed="45.00" length="20.80" shape="3255.06,4352.90,11.00 3234.26,4352.90,10.88"/>
    </edge>
    <edge id=":B_7" function="internal">
        <lane id=":B_7_0" index="0" speed="9.26" length="5.01" shape="3255.06,4352.90,11.00 3250.09,4352.19,11.00"/>
    </edge>
    <edge id=":B_17" function="internal">
        <lane id=":B_17_0" index="0" speed="9.26" length="14.34" shape="3250.09,4352.19,11.00 3249.81,4352.15,11.00 3246.06,4349.90,11.00 3243.81,4346.15,11.00 3243.06,4340.90,11.00"/>
    </edge>
    <edge id=":B_8" function="internal">
        <lane id=":B_8_0" index="0" speed="6.51" length="9.03" shape="3249.46,4340.90,11.00 3249.81,4343.35,11.00 3250.86,4345.10,11.00 3252.61,4346.15,11.00 3255.06,4346.50,11.00"/>
    </edge>
    <edge id=":B_9" function="internal">
        <lane id=":B_9_0" index="0" speed="45.00" length="20.80" shape="3249.46,4340.90,11.00 3249.46,4361.70,11.00"/>
        <lane id=":B_9_1" index="1" speed="45.00" length="20.80" shape="3246.26,4340.90,11.00 3246.26,4361.70,11.00"/>
    </edge>
    <edge id=":B_11" function="internal">
        <lane id=":B_11_0" index="0" speed="9.26" length="5.01" shape="3246.26,4340.90,11.00 3245.55,4345.86,10.97"/>
    </edge>
    <edge id=":B_18" function="internal">
        <lane id=":B_18_0" index="0" speed="9.26" length="14.34" shape="3245.55,4345.86,10.97 3245.51,4346.15,10.96 3243.26,4349.90,10.94 3239.51,4352.15,10.91 3234.26,4352.90,10.88"/>
    </edge>
    <edge id=":B_12" function="internal">
        <lane id=":B_12_0" index="0" speed="6.51" length="9.03" shape="3234.26,4346.50,10.88 3236.71,4346.15,10.91 3238.46,4345.10,10.94 3239.51,4343.35,10.96 3239.86,4340.90,11.00"/>
    </edge>
    <edge id=":B_13" function="internal">
        <lane id=":B_13_0" index="0" speed="45.00" length="20.80" shape="3234.26,4346.50,10.88 3255.06,4346.50,11.00"/>
        <lane id=":B_13_1" index="1" speed="45.00" length="20.80" shape="3234.26,4349.70,10.88 3255.06,4349.70,11.00"/>
    </edge>
    <edge id=":B_15" function="internal">
        <lane id=":B_15_0" index="0" speed="9.26" length="5.01" shape="3234.26,4349.70,10.88 3239.22,4350.41,10.91"/>
    </edge>
    <edge id=":B_19" function="internal">
        <lane id=":B_19_0" index="0" speed="9.26" length="14.34" shape="3239.22,4350.41,10.91 3239.51,4350.45,10.91 3243.26,4352.70,10.94 3245.51,4356.45,10.96 3246.26,4361.70,11.00"/>
    </edge>
    <edge id=":BA_0" function="internal">
        <lane id=":BA_0_0" index="0" speed="3.65" length="4.67" shape="3246.26,5326.32,11.00 3245.46,5327.52,11.00 3244.66,5327.92,11.00 3243.86,5327.52,11.00 3243.06,5326.32,11.00"/>
    </edge>
    <edge id=":BB_0" function="internal">
        <lane id=":BB_0_0" index="0" speed="3.65" length="4.67" shape="4219.68,4349.70,11.00 4220.88,4350.50,11.00 4221.28,4351.30,11.00 4220.88,4352.10,11.00 4219.68,4352.90,11.00"/>
    </edge>
    <edge id=":BC_0" function="internal">
        <lane id=":BC_0_0" index="0" speed="3.65" length="4.67" shape="3243.06,3376.28,11.00 3243.86,3375.08,11.00 3244.66,3374.68,11.00 3245.46,3375.08,11.00 3246.26,3376.28,11.00"/>
    </edge>
    <edge id=":C_0" function="internal">
        <lane id=":C_0_0" index="0" speed="6.51" length="9.03" shape="2268.04,2182.85 2267.69,2180.40 2266.64,2178.65 2264.89,2177.60 2262.44,2177.25"/>
    </edge>
    <edge id=":C_1" function="internal">
        <lane id=":C_1_0" index="0" speed="35.00" length="14.40" shape="2268.04,2182.85 2268.04,2168.45"/>
    </edge>
    <edge id=":C_2" function="internal">
        <lane id=":C_2_0" index="0" speed="6.51" length="9.03" shape="2276.84,2177.25 2274.39,2177.60 2272.64,2178.65 2271.59,2180.40 2271.24,2182.85"/>
    </edge>
    <edge id=":C_3" function="internal">
        <lane id=":C_3_0" index="0" speed="35.00" length="14.40" shape="2276.84,2177.25 2262.44,2177.25"/>
    </edge>
    <edge id=":C_4" function="internal">
        <lane id=":C_4_0" index="0" speed="6.51" length="9.03" shape="2271.24,2168.45 2271.59,2170.90 2272.64,2172.65 2274.39,2173.70 2276.84,2174.05"/>
    </edge>
    <edge id=":C_5" function="internal">
        <lane id=":C_5_0" index="0" speed="35.00" length="14.40" shape="2271.24,2168.45 2271.24,2182.85"/>
    </edge>
    <edge id=":C_6" function="internal">
        <lane id=":C_6_0" index="0" speed="6.51" length="9.03" shape="2262.44,2174.05 2264.89,2173.70 2266.64,2172.65 2267.69,2170.90 2268.04,2168.45"/>
    </edge>
    <edge id=":C_7" function="internal">
        <lane id=":C_7_0" index="0" speed="35.00" length="14.40" shape="2262.44,2174.05 2276.84,2174.05"/>
    </edge>
    <edge id=":CA_0" function="internal">
        <lane id=":CA_0_0" index="0" speed="3.65" length="4.67" shape="4445.28,2174.05 4446.48,2174.85 4446.88,2175.65 4446.48,2176.45 4445.28,2177.25"/>
    </edge>
    <edge id=":CB_0" function="internal">
        <lane id=":CB_0_0" index="0" speed="3.65" length="4.67" shape="2268.04,-0.00 2268.84,-1.20 2269.64,-1.60 2270.44,-1.20 2271.24,0.00"/>
    </edge>
    <edge id=":CC_0" function="internal">
        <lane id=":CC_0_0" index="0" speed="3.65" length="4.67" shape="93.99,2177.25 92.79,2176.45 92.39,2175.65 92.79,2174.85 93.99,2174.05"/>
    </edge>
    <edge id=":D_0" function="internal">
        <lane id=":D_0_0" index="0" speed="6.51" length="9.03" shape="1130.02,4361.70,-0.69 1129.67,4359.25,-0.69 1128.62,4357.50,-0.69 1126.87,4356.45,-0.69 1124.42,4356.10,-0.69"/>
    </edge>
    <edge id=":D_1" function="internal">
        <lane id=":D_1_0" index="0" speed="45.00" length="20.80" shape="1130.02,4361.70,-0.69 1130.02,4340.90,-0.69"/>
        <lane id=":D_1_1" index="1" speed="45.00" length="20.80" shape="1133.22,4361.70,-0.69 1133.22,4340.90,-0.69"/>
    </edge>
    <edge id=":D_3" function="internal">
        <lane id=":D_3_0" index="0" speed="9.26" length="5.01" shape="1133.22,4361.70,-0.69 1133.93,4356.73,-0.69"/>
    </edge>
    <edge id=":D_16" function="internal">
        <lane id=":D_16_0" index="0" speed="9.26" length="14.34" shape="1133.93,4356.73,-0.69 1133.97,4356.45,-0.69 1136.22,4352.70,-0.69 1139.97,4350.45,-0.69 1145.22,4349.70,-0.69"/>
    </edge>
    <edge id=":D_4" function="internal">
        <lane id=":D_4_0" index="0" speed="6.51" length="9.03" shape="1145.22,4356.10,-0.69 1142.77,4356.45,-0.69 1141.02,4357.50,-0.69 1139.97,4359.25,-0.69 1139.62,4361.70,-0.69"/>
    </edge>
    <edge id=":D_5" function="internal">
        <lane id=":D_5_0" index="0" speed="45.00" length="20.80" shape="1145.22,4356.10,-0.69 1124.42,4356.10,-0.69"/>
        <lane id=":D_5_1" index="1" speed="45.00" length="20.80" shape="1145.22,4352.90,-0.69 1124.42,4352.90,-0.69"/>
    </edge>
    <edge id=":D_7" function="internal">
        <lane id=":D_7_0" index="0" speed="9.26" length="5.01" shape="1145.22,4352.90,-0.69 1140.25,4352.19,-0.69"/>
    </edge>
    <edge id=":D_17" function="internal">
        <lane id=":D_17_0" index="0" speed="9.26" length="14.34" shape="1140.25,4352.19,-0.69 1139.97,4352.15,-0.69 1136.22,4349.90,-0.69 1133.97,4346.15,-0.69 1133.22,4340.90,-0.69"/>
    </edge>
    <edge id=":D_8" function="internal">
        <lane id=":D_8_0" index="0" speed="6.51" length="9.03" shape="1139.62,4340.90,-0.69 1139.97,4343.35,-0.69 1141.02,4345.10,-0.69 1142.77,4346.15,-0.69 1145.22,4346.50,-0.69"/>
    </edge>
    <edge id=":D_9" function="internal">
        <lane id=":D_9_0" index="0" speed="45.00" length="20.80" shape="1139.62,4340.90,-0.69 1139.62,4361.70,-0.69"/>
        <lane id=":D_9_1" index="1" speed="45.00" length="20.80" shape="1136.42,4340.90,-0.69 1136.42,4361.70,-0.69"/>
    </edge>
    <edge id=":D_11" function="internal">
        <lane id=":D_11_0" index="0" speed="9.26" length="5.01" shape="1136.42,4340.90,-0.69 1135.71,4345.86,-0.69"/>
    </edge>
    <edge id=":D_18" function="internal">
        <lane id=":D_18_0" index="0" speed="9.26" length="14.34" shape="1135.71,4345.86,-0.69 1135.67,4346.15,-0.69 1133.42,4349.90,-0.69 1129.67,4352.15,-0.69 1124.42,4352.90,-0.69"/>
    </edge>
    <edge id=":D_12" function="internal">
        <lane id=":D_12_0" index="0" speed="6.51" length="9.03" shape="1124.42,4346.50,-0.69 1126.87,4346.15,-0.69 1128.62,4345.10,-0.69 1129.67,4343.35,-0.69 1130.02,4340.90,-0.69"/>
    </edge>
    <edge id=":D_13" function="internal">
        <lane id=":D_13_0" index="0" speed="45.00" length="20.80" shape="1124.42,4346.50,-0.69 1145.22,4346.50,-0.69"/>
        <lane id=":D_13_1" index="1" speed="45.00" length="20.80" shape="1124.42,4349.70,-0.69 1145.22,4349.70,-0.69"/>
    </edge>
    <edge id=":D_15" function="internal">
        <lane id=":D_15_0" index="0" speed="9.26" length="5.01" shape="1124.42,4349.70,-0.69 1129.38,4350.41,-0.69"/>
    </edge>
    <edge id=":D_19" function="internal">
        <lane id=":D_19_0" index="0" speed="9.26" length="14.34" shape="1129.38,4350.41,-0.69 1129.67,4350.45,-0.69 1133.42,4352.70,-0.69 1135.67,4356.45,-0.69 1136.42,4361.70,-0.69"/>
    </edge>
    <edge id=":DA_0" function="internal">
        <lane id=":DA_0_0" index="0" speed="3.65" length="4.67" shape="1133.22,3216.48,-0.69 1134.02,3215.28,-0.69 1134.82,3214.88,-0.69 1135.62,3215.28,-0.69 1136.42,3216.48,-0.69"/>
    </edge>
    <edge id=":DB_0" function="internal">
        <lane id=":DB_0_0" index="0" speed="3.65" length="4.67" shape="0.00,4352.90,-0.69 -1.20,4352.10,-0.69 -1.60,4351.30,-0.69 -1.20,4350.50,-0.69 0.00,4349.70,-0.69"/>
    </edge>
    <edge id=":DC_0" function="internal">
        <lane id=":DC_0_0" index="0" speed="3.65" length="4.67" shape="1136.42,5486.12,-0.69 1135.62,5487.32,-0.69 1134.82,5487.72,-0.69 1134.02,5487.32,-0.69 1133.22,5486.12,-0.69"/>
    </edge>
    <edge id=":TL_0" function="internal">
        <lane id=":TL_0_0" index="0" speed="6.51" length="9.03" shape="2268.04,4361.70,-0.17 2267.69,4359.25,-0.12 2266.64,4357.50,-0.09 2264.89,4356.45,-0.05 2262.44,4356.10,-0.00"/>
    </edge>
    <edge id=":TL_1" function="internal">
        <lane id=":TL_1_0" index="0" speed="32.50" length="20.80" shape="2268.04,4361.70,-0.17 2268.04,4340.90"/>
    </edge>
    <edge id=":TL_2" function="internal">
        <lane id=":TL_2_0" index="0" speed="6.51" length="9.03" shape="2276.84,4356.10,0.08 2274.39,4356.45,0.01 2272.64,4357.50,-0.04 2271.59,4359.25,-0.10 2271.24,4361.70,-0.17"/>
    </edge>
    <edge id=":TL_3" function="internal">
        <lane id=":TL_3_0" index="0" speed="45.00" length="14.40" shape="2276.84,4356.10,0.08 2262.44,4356.10,-0.00"/>
        <lane id=":TL_3_1" index="1" speed="45.00" length="14.40" shape="2276.84,4352.90,0.08 2262.44,4352.90,-0.00"/>
    </edge>
    <edge id=":TL_5" function="internal">
        <lane id=":TL_5_0" index="0" speed="8.67" length="3.71" shape="2276.84,4352.90,0.08 2273.19,4352.19,0.06"/>
    </edge>
    <edge id=":TL_12" function="internal">
        <lane id=":TL_12_0" index="0" speed="8.67" length="13.14" shape="2273.19,4352.19,0.06 2272.99,4352.15,0.06 2270.24,4349.90,0.05 2268.59,4346.15,0.03 2268.04,4340.90"/>
    </edge>
    <edge id=":TL_6" function="internal">
        <lane id=":TL_6_0" index="0" speed="6.51" length="9.03" shape="2271.24,4340.90 2271.59,4343.35,0.02 2272.64,4345.10,0.04 2274.39,4346.15,0.06 2276.84,4346.50,0.08"/>
    </edge>
    <edge id=":TL_7" function="internal">
        <lane id=":TL_7_0" index="0" speed="32.50" length="20.80" shape="2271.24,4340.90 2271.24,4361.70,-0.17"/>
    </edge>
    <edge id=":TL_8" function="internal">
        <lane id=":TL_8_0" index="0" speed="6.51" length="9.03" shape="2262.44,4346.50,-0.00 2264.89,4346.15,-0.00 2266.64,4345.10,-0.00 2267.69,4343.35,-0.00 2268.04,4340.90"/>
    </edge>
    <edge id=":TL_9" function="internal">
        <lane id=":TL_9_0" index="0" speed="45.00" length="14.40" shape="2262.44,4346.50,-0.00 2276.84,4346.50,0.08"/>
        <lane id=":TL_9_1" index="1" speed="45.00" length="14.40" shape="2262.44,4349.70,-0.00 2276.84,4349.70,0.08"/>
    </edge>
    <edge id=":TL_11" function="internal">
        <lane id=":TL_11_0" index="0" speed="8.67" length="3.71" shape="2262.44,4349.70,-0.00 2266.08,4350.41,-0.04"/>
    </edge>
    <edge id=":TL_13" function="internal">
        <lane id=":TL_13_0" index="0" speed="8.67" length="13.14" shape="2266.08,4350.41,-0.04 2266.29,4350.45,-0.04 2269.04,4352.70,-0.08 2270.69,4356.45,-0.12 2271.24,4361.70,-0.17"/>
    </edge>

    <edge id="A2AA" from="A" to="AA" priority="-1">
        <lane id="A2AA_0" index="0" speed="30.00" length="286.83" shape="2262.44,4646.93,-4.75 1975.60,4646.93,-4.75"/>
    </edge>
    <edge id="A2AB" from="A" to="AB" priority="-1">
        <lane id="A2AB_0" index="0" speed="30.00" length="286.83" shape="2271.24,4652.53,-4.75 2271.24,4939.37,-4.75"/>
    </edge>
    <edge id="A2AC" from="A" to="AC" priority="-1">
        <lane id="A2AC_0" index="0" speed="30.00" length="286.83" shape="2276.84,4643.73,-4.75 2563.67,4643.73,-4.75"/>
    </edge>
    <edge id="A2TL" from="A" to="TL" priority="-1">
        <lane id="A2TL_0" index="0" speed="30.00" length="276.47" shape="2268.04,4638.13,-4.63 2268.04,4361.70,-0.17"/>
    </edge>
    <edge id="AA2A" from="AA" to="A" priority="-1">
        <lane id="AA2A_0" index="0" speed="30.00" length="286.83" shape="1975.60,4643.73,-4.75 2262.44,4643.73,-4.75"/>
    </edge>
    <edge id="AB2A" from="AB" to="A" priority="-1">
        <lane id="AB2A_0" index="0" speed="30.00" length="286.83" shape="2268.04,4939.37,-4.75 2268.04,4652.53,-4.75"/>
    </edge>
    <edge id="AC2A" from="AC" to="A" priority="-1">
        <lane id="AC2A_0" index="0" speed="30.00" length="286.83" shape="2563.67,4646.93,-4.75 2276.84,4646.93,-4.75"/>
    </edge>
    <edge id="B2BA" from="B" to="BA" priority="-1">
        <lane id="B2BA_0" index="0" speed="45.00" length="964.62" shape="3249.46,4361.70,11.00 3249.46,5326.32,11.00"/>
        <lane id="B2BA_1" index="1" speed="45.00" length="964.62" shape="3246.26,4361.70,11.00 3246.26,5326.32,11.00"/>
    </edge>
    <edge id="B2BB" from="B" to="BB" priority="-1">
        <lane id="B2BB_0" index="0" speed="45.00" length="964.62" shape="3255.06,4346.50,11.00 4219.68,4346.50,11.00"/>
        <lane id="B2BB_1" index="1" speed="45.00" length="964.62" shape="3255.06,4349.70,11.00 4219.68,4349.70,11.00"/>
    </edge>
    <edge id="B2BC" from="B" to="BC" priority="-1">
        <lane id="B2BC_0" index="0" speed="45.00" length="964.62" shape="3239.86,4340.90,11.00 3239.86,3376.28,11.00"/>
        <lane id="B2BC_1" index="1" speed="45.00" length="964.62" shape="3243.06,4340.90,11.00 3243.06,3376.28,11.00"/>
    </edge>
    <edge id="B2TL" from="B" to="TL" priority="-1">
        <lane id="B2TL_0" index="0" speed="45.00" length="957.48" shape="3234.26,4356.10,10.88 2276.84,4356.10,0.08"/>
        <lane id="B2TL_1" index="1" speed="45.00" length="957.48" shape="3234.26,4352.90,10.88 2276.84,4352.90,0.08"/>
    </edge>
    <edge id="BA2B" from="BA" to="B" priority="-1">
        <lane id="BA2B_0" index="0" speed="45.00" length="964.62" shape="3239.86,5326.32,11.00 3239.86,4361.70,11.00"/>
        <lane id="BA2B_1" index="1" speed="45.00" length="964.62" shape="3243.06,5326.32,11.00 3243.06,4361.70,11.00"/>
    </edge>
    <edge id="BB2B" from="BB" to="B" priority="-1">
        <lane id="BB2B_0" index="0" speed="45.00" length="964.62" shape="4219.68,4356.10,11.00 3255.06,4356.10,11.00"/>
        <lane id="BB2B_1" index="1" speed="45.00" length="964.62" shape="4219.68,4352.90,11.00 3255.06,4352.90,11.00"/>
    </edge>
    <edge id="BC2B" from="BC" to="B" priority="-1">
        <lane id="BC2B_0" index="0" speed="45.00" length="964.62" shape="3249.46,3376.28,11.00 3249.46,4340.90,11.00"/>
        <lane id="BC2B_1" index="1" speed="45.00" length="964.62" shape="3246.26,3376.28,11.00 3246.26,4340.90,11.00"/>
    </edge>
    <edge id="C2CA" from="C" to="CA" priority="-1">
        <lane id="C2CA_0" index="0" speed="35.00" length="2168.45" shape="2276.84,2174.05 4445.28,2174.05"/>
    </edge>
    <edge id="C2CB" from="C" to="CB" priority="-1">
        <lane id="C2CB_0" index="0" speed="35.00" length="2168.45" shape="2268.04,2168.45 2268.04,-0.00"/>
    </edge>
    <edge id="C2CC" from="C" to="CC" priority="-1">
        <lane id="C2CC_0" index="0" speed="35.00" length="2168.45" shape="2262.44,2177.25 93.99,2177.25"/>
    </edge>
    <edge id="C2TL" from="C" to="TL" priority="-1">
        <lane id="C2TL_0" index="0" speed="35.00" length="2158.05" shape="2271.24,2182.85 2271.24,4340.90"/>
    </edge>
    <edge id="CA2C" from="CA" to="C" priority="-1">
        <lane id="CA2C_0" index="0" speed="35.00" length="2168.45" shape="4445.28,2177.25 2276.84,2177.25"/>
    </edge>
    <edge id="CB2C" from="CB" to="C" priority="-1">
        <lane id="CB2C_0" index="0" speed="35.00" length="2168.45" shape="2271.24,0.00 2271.24,2168.45"/>
    </edge>
    <edge id="CC2C" from="CC" to="C" priority="-1">
        <lane id="CC2C_0" index="0" speed="35.00" length="2168.45" shape="93.99,2174.05 2262.44,2174.05"/>
    </edge>
    <edge id="D2DA" from="D" to="DA" priority="-1">
        <lane id="D2DA_0" index="0" speed="45.00" length="1124.42" shape="1130.02,4340.90,-0.69 1130.02,3216.48,-0.69"/>
        <lane id="D2DA_1" index="1" speed="45.00" length="1124.42" shape="1133.22,4340.90,-0.69 1133.22,3216.48,-0.69"/>
    </edge>
    <edge id="D2DB" from="D" to="DB" priority="-1">
        <lane id="D2DB_0" index="0" speed="45.00" length="1124.42" shape="1124.42,4356.10,-0.69 0.00,4356.10,-0.69"/>
        <lane id="D2DB_1" index="1" speed="45.00" length="1124.42" shape="1124.42,4352.90,-0.69 0.00,4352.90,-0.69"/>
    </edge>
    <edge id="D2DC" from="D" to="DC" priority="-1">
        <lane id="D2DC_0" index="0" speed="45.00" length="1124.42" shape="1139.62,4361.70,-0.69 1139.62,5486.12,-0.69"/>
        <lane id="D2DC_1" index="1" speed="45.00" length="1124.42" shape="1136.42,4361.70,-0.69 1136.42,5486.12,-0.69"/>
    </edge>
    <edge id="D2TL" from="D" to="TL" priority="-1">
        <lane id="D2TL_0" index="0" speed="45.00" length="1117.22" shape="1145.22,4346.50,-0.69 2262.44,4346.50,-0.00"/>
        <lane id="D2TL_1" index="1" speed="45.00" length="1117.22" shape="1145.22,4349.70,-0.69 2262.44,4349.70,-0.00"/>
    </edge>
    <edge id="DA2D" from="DA" to="D" priority="-1">
        <lane id="DA2D_0" index="0" speed="45.00" length="1124.42" shape="1139.62,3216.48,-0.69 1139.62,4340.90,-0.69"/>
        <lane id="DA2D_1" index="1" speed="45.00" length="1124.42" shape="1136.42,3216.48,-0.69 1136.42,4340.90,-0.69"/>
    </edge>
    <edge id="DB2D" from="DB" to="D" priority="-1">
        <lane id="DB2D_0" index="0" speed="45.00" length="1124.42" shape="0.00,4346.50,-0.69 1124.42,4346.50,-0.69"/>
        <lane id="DB2D_1" index="1" speed="45.00" length="1124.42" shape="0.00,4349.70,-0.69 1124.42,4349.70,-0.69"/>
    </edge>
    <edge id="DC2D" from="DC" to="D" priority="-1">
        <lane id="DC2D_0" index="0" speed="45.00" length="1124.42" shape="1130.02,5486.12,-0.69 1130.02,4361.70,-0.69"/>
        <lane id="DC2D_1" index="1" speed="45.00" length="1124.42" shape="1133.22,5486.12,-0.69 1133.22,4361.70,-0.69"/>
    </edge>
    <edge id="TL2A" from="TL" to="A" priority="-1">
        <lane id="TL2A_0" index="0" speed="30.00" length="276.47" shape="2271.24,4361.70,-0.17 2271.24,4638.13,-4.63"/>
    </edge>
    <edge id="TL2B" from="TL" to="B" priority="-1">
        <lane id="TL2B_0" index="0" speed="45.00" length="957.48" shape="2276.84,4346.50,0.08 3234.26,4346.50,10.88"/>
        <lane id="TL2B_1" index="1" speed="45.00" length="957.48" shape="2276.84,4349.70,0.08 3234.26,4349.70,10.88"/>
    </edge>
    <edge id="TL2C" from="TL" to="C" priority="-1">
        <lane id="TL2C_0" index="0" speed="35.00" length="2158.05" shape="2268.04,4340.90 2268.04,2182.85"/>
    </edge>
    <edge id="TL2D" from="TL" to="D" priority="-1">
        <lane id="TL2D_0" index="0" speed="45.00" length="1117.22" shape="2262.44,4356.10,-0.00 1145.22,4356.10,-0.69"/>
        <lane id="TL2D_1" index="1" speed="45.00" length="1117.22" shape="2262.44,4352.90,-0.00 1145.22,4352.90,-0.69"/>
    </edge>

    <tlLogic id="A" type="static" programID="0" offset="0">
        <phase duration="39" state="GGrrGGrr"/>
        <phase duration="6"  state="yyrryyrr"/>
        <phase duration="39" state="rrGGrrGG"/>
        <phase duration="6"  state="rryyrryy"/>
    </tlLogic>
    <tlLogic id="AA" type="static" programID="0" offset="0">
        <phase duration="79" state="G"/>
        <phase duration="6"  state="y"/>
        <phase duration="5"  state="r"/>
    </tlLogic>
    <tlLogic id="AB" type="static" programID="0" offset="0">
        <phase duration="79" state="G"/>
        <phase duration="6"  state="y"/>
        <phase duration="5"  state="r"/>
    </tlLogic>
    <tlLogic id="AC" type="static" programID="0" offset="0">
        <phase duration="79" state="G"/>
        <phase duration="6"  state="y"/>
        <phase duration="5"  state="r"/>
    </tlLogic>
    <tlLogic id="B" type="static" programID="0" offset="0">
        <phase duration="36" state="GGGgrrrrGGGgrrrr"/>
        <phase duration="9"  state="yyyyrrrryyyyrrrr"/>
        <phase duration="36" state="rrrrGGGgrrrrGGGg"/>
        <phase duration="9"  state="rrrryyyyrrrryyyy"/>
    </tlLogic>
    <tlLogic id="BA" type="static" programID="0" offset="0">
        <phase duration="76" state="G"/>
        <phase duration="9"  state="y"/>
        <phase duration="5"  state="r"/>
    </tlLogic>
    <tlLogic id="BB" type="static" programID="0" offset="0">
        <phase duration="76" state="G"/>
        <phase duration="9"  state="y"/>
        <phase duration="5"  state="r"/>
    </tlLogic>
    <tlLogic id="BC" type="static" programID="0" offset="0">
        <phase duration="76" state="G"/>
        <phase duration="9"  state="y"/>
        <phase duration="5"  state="r"/>
    </tlLogic>
    <tlLogic id="C" type="static" programID="0" offset="0">
        <phase duration="38" state="GGrrGGrr"/>
        <phase duration="7"  state="yyrryyrr"/>
        <phase duration="38" state="rrGGrrGG"/>
        <phase duration="7"  state="rryyrryy"/>
    </tlLogic>
    <tlLogic id="CA" type="static" programID="0" offset="0">
        <phase duration="78" state="G"/>
        <phase duration="7"  state="y"/>
        <phase duration="5"  state="r"/>
    </tlLogic>
    <tlLogic id="CB" type="static" programID="0" offset="0">
        <phase duration="78" state="G"/>
        <phase duration="7"  state="y"/>
        <phase duration="5"  state="r"/>
    </tlLogic>
    <tlLogic id="CC" type="static" programID="0" offset="0">
        <phase duration="78" state="G"/>
        <phase duration="7"  state="y"/>
        <phase duration="5"  state="r"/>
    </tlLogic>
    <tlLogic id="D" type="static" programID="0" offset="0">
        <phase duration="36" state="GGGgrrrrGGGgrrrr"/>
        <phase duration="9"  state="yyyyrrrryyyyrrrr"/>
        <phase duration="36" state="rrrrGGGgrrrrGGGg"/>
        <phase duration="9"  state="rrrryyyyrrrryyyy"/>
    </tlLogic>
    <tlLogic id="DA" type="static" programID="0" offset="0">
        <phase duration="76" state="G"/>
        <phase duration="9"  state="y"/>
        <phase duration="5"  state="r"/>
    </tlLogic>
    <tlLogic id="DB" type="static" programID="0" offset="0">
        <phase duration="76" state="G"/>
        <phase duration="9"  state="y"/>
        <phase duration="5"  state="r"/>
    </tlLogic>
    <tlLogic id="DC" type="static" programID="0" offset="0">
        <phase duration="76" state="G"/>
        <phase duration="9"  state="y"/>
        <phase duration="5"  state="r"/>
    </tlLogic>
    <tlLogic id="TL" type="static" programID="0" offset="0">
        <phase duration="36" state="srGGGgsrGGGg"/>
        <phase duration="9"  state="sryyyysryyyy"/>
        <phase duration="36" state="GGsrrrGGsrrr"/>
        <phase duration="9"  state="yysrrryysrrr"/>
    </tlLogic>

    <junction id="A" type="traffic_light" x="2269.64" y="4645.33" z="-4.75" incLanes="AB2A_0 AC2A_0 TL2A_0 AA2A_0" intLanes=":A_0_0 :A_1_0 :A_2_0 :A_3_0 :A_4_0 :A_5_0 :A_6_0 :A_7_0" shape="2266.44,4652.53,-4.75 2272.84,4652.53,-4.75 2273.28,4650.31,-4.75 2273.84,4649.53,-4.75 2274.61,4648.98,-4.75 2275.61,4648.64,-4.75 2276.84,4648.53,-4.75 2276.84,4642.13,-4.75 2274.61,4641.69,-4.75 2273.84,4641.13,-4.75 2273.28,4640.35,-4.75 2272.95,4639.35,-4.75 2272.84,4638.13,-4.75 2266.44,4638.13,-4.75 2265.99,4640.35,-4.75 2265.44,4641.13,-4.75 2264.66,4641.69,-4.75 2263.66,4642.02,-4.75 2262.44,4642.13,-4.75 2262.44,4648.53,-4.75 2264.66,4648.98,-4.75 2265.44,4649.53,-4.75 2265.99,4650.31,-4.75 2266.32,4651.31,-4.75">
        <request index="0" response="00000000" foes="00001000" cont="0"/>
        <request index="1" response="00000000" foes="11001000" cont="0"/>
        <request index="2" response="00100000" foes="00100000" cont="0"/>
        <request index="3" response="00100011" foes="00100011" cont="0"/>
        <request index="4" response="00000000" foes="10000000" cont="0"/>
        <request index="5" response="00000000" foes="10001100" cont="0"/>
        <request index="6" response="00000010" foes="00000010" cont="0"/>
        <request index="7" response="00110010" foes="00110010" cont="0"/>
    </junction>