<?xml version="1.0" encoding="UTF-8"?>

<!-- generated on 2022-10-11 17:11:06 by Eclipse SUMO netconvert Version 1.14.1
<configuration xmlns:xsi="http://www.w3.org/2001/XMLSchema-instance" xsi:noNamespaceSchemaLocation="http://sumo.dlr.de/xsd/netconvertConfiguration.xsd">

    <input>
        <node-files value="../data/salt-lake-city/nodes.nod.xml"/>
        <edge-files value="../data/salt-lake-city/edges.edg.xml"/>
        <connection-files value="../data/salt-lake-city/connections.con.xml"/>
    </input>

    <output>
        <output-file value="../data/salt-lake-city/sumo/net/306.net.xml"/>
    </output>

    <tls_building>
        <tls.minor-left.max-speed value="1"/>
    </tls_building>

    <report>
        <verbose value="true"/>
    </report>

</configuration>
-->

<net version="1.9" junctionCornerDetail="5" limitTurnSpeed="5.50" xmlns:xsi="http://www.w3.org/2001/XMLSchema-instance" xsi:noNamespaceSchemaLocation="http://sumo.dlr.de/xsd/net_file.xsd">

    <location netOffset="2016.37,1590.26" convBoundary="0.00,0.00,2517.67,2592.86" origBoundary="-2016.37,-1590.26,501.30,1002.59" projParameter="!"/>

    <edge id=":A_0" function="internal">
        <lane id=":A_0_0" index="0" speed="6.51" length="9.03" shape="2008.37,2105.16,-2.90 2008.02,2102.71,-2.90 2006.97,2100.96,-2.90 2005.22,2099.91,-2.90 2002.77,2099.56,-2.90"/>
    </edge>
    <edge id=":A_1" function="internal">
        <lane id=":A_1_0" index="0" speed="40.00" length="27.20" shape="2008.37,2105.16,-2.90 2008.37,2077.96,-2.82"/>
        <lane id=":A_1_1" index="1" speed="40.00" length="27.20" shape="2011.57,2105.16,-2.90 2011.57,2077.96,-2.82"/>
        <lane id=":A_1_2" index="2" speed="40.00" length="27.20" shape="2014.77,2105.16,-2.90 2014.77,2077.96,-2.82"/>
    </edge>
    <edge id=":A_4" function="internal">
        <lane id=":A_4_0" index="0" speed="10.36" length="5.01" shape="2014.77,2105.16,-2.90 2015.48,2100.20,-2.90"/>
    </edge>
    <edge id=":A_20" function="internal">
        <lane id=":A_20_0" index="0" speed="10.36" length="19.50" shape="2015.48,2100.20,-2.90 2015.72,2098.51,-2.90 2018.57,2093.76,-2.90 2023.32,2090.91,-2.90 2029.97,2089.96,-2.90"/>
    </edge>
    <edge id=":A_5" function="internal">
        <lane id=":A_5_0" index="0" speed="6.51" length="9.03" shape="2029.97,2099.56,-2.90 2027.52,2099.91,-2.90 2025.77,2100.96,-2.90 2024.72,2102.71,-2.90 2024.37,2105.16,-2.90"/>
    </edge>
    <edge id=":A_6" function="internal">
        <lane id=":A_6_0" index="0" speed="40.00" length="27.20" shape="2029.97,2099.56,-2.90 2002.77,2099.56,-2.90"/>
        <lane id=":A_6_1" index="1" speed="40.00" length="27.20" shape="2029.97,2096.36,-2.90 2002.77,2096.36,-2.90"/>
        <lane id=":A_6_2" index="2" speed="40.00" length="27.20" shape="2029.97,2093.16,-2.90 2002.77,2093.16,-2.90"/>
    </edge>
    <edge id=":A_9" function="internal">
        <lane id=":A_9_0" index="0" speed="10.36" length="5.01" shape="2029.97,2093.16,-2.90 2025.01,2092.45,-2.89"/>
    </edge>
    <edge id=":A_21" function="internal">
        <lane id=":A_21_0" index="0" speed="10.36" length="19.50" shape="2025.01,2092.45,-2.89 2023.32,2092.21,-2.88 2018.57,2089.36,-2.86 2015.72,2084.61,-2.85 2014.77,2077.96,-2.82"/>
    </edge>
    <edge id=":A_10" function="internal">
        <lane id=":A_10_0" index="0" speed="6.51" length="9.03" shape="2024.37,2077.96,-2.82 2024.72,2080.41,-2.85 2025.77,2082.16,-2.86 2027.52,2083.21,-2.88 2029.97,2083.56,-2.90"/>
    </edge>
    <edge id=":A_11" function="internal">
        <lane id=":A_11_0" index="0" speed="40.00" length="27.20" shape="2024.37,2077.96,-2.82 2024.37,2105.16,-2.90"/>
        <lane id=":A_11_1" index="1" speed="40.00" length="27.20" shape="2021.17,2077.96,-2.82 2021.17,2105.16,-2.90"/>
        <lane id=":A_11_2" index="2" speed="40.00" length="27.20" shape="2017.97,2077.96,-2.82 2017.97,2105.16,-2.90"/>
    </edge>
    <edge id=":A_14" function="internal">
        <lane id=":A_14_0" index="0" speed="10.36" length="5.01" shape="2017.97,2077.96,-2.82 2017.27,2082.92,-2.84"/>
    </edge>
    <edge id=":A_22" function="internal">
        <lane id=":A_22_0" index="0" speed="10.36" length="19.50" shape="2017.27,2082.92,-2.84 2017.02,2084.61,-2.85 2014.17,2089.36,-2.86 2009.42,2092.21,-2.88 2002.77,2093.16,-2.90"/>
    </edge>
    <edge id=":A_15" function="internal">
        <lane id=":A_15_0" index="0" speed="6.51" length="9.03" shape="2002.77,2083.56,-2.90 2005.22,2083.21,-2.88 2006.97,2082.16,-2.86 2008.02,2080.41,-2.85 2008.37,2077.96,-2.82"/>
    </edge>
    <edge id=":A_16" function="internal">
        <lane id=":A_16_0" index="0" speed="40.00" length="27.20" shape="2002.77,2083.56,-2.90 2029.97,2083.56,-2.90"/>
        <lane id=":A_16_1" index="1" speed="40.00" length="27.20" shape="2002.77,2086.76,-2.90 2029.97,2086.76,-2.90"/>
        <lane id=":A_16_2" index="2" speed="40.00" length="27.20" shape="2002.77,2089.96,-2.90 2029.97,2089.96,-2.90"/>
    </edge>
    <edge id=":A_19" function="internal">
        <lane id=":A_19_0" index="0" speed="10.36" length="5.01" shape="2002.77,2089.96,-2.90 2007.74,2090.67,-2.90"/>
    </edge>
    <edge id=":A_23" function="internal">
        <lane id=":A_23_0" index="0" speed="10.36" length="19.50" shape="2007.74,2090.67,-2.90 2009.42,2090.91,-2.90 2014.17,2093.76,-2.90 2017.02,2098.51,-2.90 2017.97,2105.16,-2.90"/>
    </edge>
    <edge id=":AA_0" function="internal">
        <lane id=":AA_0_0" index="0" speed="3.65" length="4.67" shape="1515.08,2093.16,-2.90 1513.88,2092.36,-2.90 1513.48,2091.56,-2.90 1513.88,2090.76,-2.90 1515.08,2089.96,-2.90"/>
    </edge>
    <edge id=":AB_0" function="internal">
        <lane id=":AB_0_0" index="0" speed="3.65" length="4.67" shape="2017.97,2592.86,-2.90 2017.17,2594.06,-2.90 2016.37,2594.46,-2.90 2015.57,2594.06,-2.90 2014.77,2592.86,-2.90"/>
    </edge>
    <edge id=":AC_0" function="internal">
        <lane id=":AC_0_0" index="0" speed="3.65" length="4.67" shape="2517.67,2089.96,-2.90 2518.87,2090.76,-2.90 2519.27,2091.56,-2.90 2518.87,2092.36,-2.90 2517.67,2093.16,-2.90"/>
    </edge>
    <edge id=":B_0" function="internal">
        <lane id=":B_0_0" index="0" speed="6.51" length="9.03" shape="2225.56,1481.50,5.71 2224.03,1479.55,5.71 2222.25,1478.56,5.71 2220.21,1478.53,5.71 2217.91,1479.45,5.71"/>
    </edge>
    <edge id=":B_1" function="internal">
        <lane id=":B_1_0" index="0" speed="40.00" length="20.80" shape="2225.56,1481.50,5.71 2215.16,1463.49,5.71"/>
        <lane id=":B_1_1" index="1" speed="40.00" length="20.80" shape="2228.33,1479.90,5.71 2217.93,1461.89,5.71"/>
    </edge>
    <edge id=":B_3" function="internal">
        <lane id=":B_3_0" index="0" speed="9.26" length="5.01" shape="2228.33,1479.90,5.71 2226.46,1475.25,5.71"/>
    </edge>
    <edge id=":B_16" function="internal">
        <lane id=":B_16_0" index="0" speed="9.26" length="14.34" shape="2226.46,1475.25,5.71 2226.36,1474.98,5.71 2226.43,1470.61,5.71 2228.55,1466.78,5.71 2232.72,1463.51,5.71"/>
    </edge>
    <edge id=":B_4" function="internal">
        <lane id=":B_4_0" index="0" speed="6.51" length="9.03" shape="2235.92,1469.05,5.71 2233.98,1470.58,5.71 2232.99,1472.36,5.71 2232.95,1474.40,5.71 2233.87,1476.70,5.71"/>
    </edge>
    <edge id=":B_5" function="internal">
        <lane id=":B_5_0" index="0" speed="40.00" length="20.80" shape="2235.92,1469.05,5.71 2217.91,1479.45,5.71"/>
        <lane id=":B_5_1" index="1" speed="40.00" length="20.80" shape="2234.32,1466.28,5.71 2216.31,1476.68,5.71"/>
    </edge>
    <edge id=":B_7" function="internal">
        <lane id=":B_7_0" index="0" speed="9.26" length="5.01" shape="2234.32,1466.28,5.71 2229.67,1468.15,5.71"/>
    </edge>
    <edge id=":B_17" function="internal">
        <lane id=":B_17_0" index="0" speed="9.26" length="14.34" shape="2229.67,1468.15,5.71 2229.40,1468.25,5.71 2225.03,1468.18,5.71 2221.21,1466.06,5.71 2217.93,1461.89,5.71"/>
    </edge>
    <edge id=":B_8" function="internal">
        <lane id=":B_8_0" index="0" speed="6.51" length="9.03" shape="2223.47,1458.69,5.71 2225.00,1460.63,5.71 2226.79,1461.62,5.71 2228.83,1461.66,5.71 2231.12,1460.74,5.71"/>
    </edge>
    <edge id=":B_9" function="internal">
        <lane id=":B_9_0" index="0" speed="40.00" length="20.80" shape="2223.47,1458.69,5.71 2233.87,1476.70,5.71"/>
        <lane id=":B_9_1" index="1" speed="40.00" length="20.80" shape="2220.70,1460.29,5.71 2231.10,1478.30,5.71"/>
    </edge>
    <edge id=":B_11" function="internal">
        <lane id=":B_11_0" index="0" speed="9.26" length="5.01" shape="2220.70,1460.29,5.71 2222.57,1464.94,5.71"/>
    </edge>
    <edge id=":B_18" function="internal">
        <lane id=":B_18_0" index="0" speed="9.26" length="14.34" shape="2222.57,1464.94,5.71 2222.68,1465.21,5.71 2222.60,1469.58,5.71 2220.48,1473.40,5.71 2216.31,1476.68,5.71"/>
    </edge>
    <edge id=":B_12" function="internal">
        <lane id=":B_12_0" index="0" speed="6.51" length="9.03" shape="2213.11,1471.14,5.71 2215.06,1469.61,5.71 2216.05,1467.82,5.71 2216.08,1465.78,5.71 2215.16,1463.49,5.71"/>
    </edge>
    <edge id=":B_13" function="internal">
        <lane id=":B_13_0" index="0" speed="40.00" length="20.80" shape="2213.11,1471.14,5.71 2231.12,1460.74,5.71"/>
        <lane id=":B_13_1" index="1" speed="40.00" length="20.80" shape="2214.71,1473.91,5.71 2232.72,1463.51,5.71"/>
    </edge>
    <edge id=":B_15" function="internal">
        <lane id=":B_15_0" index="0" speed="9.26" length="5.01" shape="2214.71,1473.91,5.71 2219.36,1472.04,5.71"/>
    </edge>
    <edge id=":B_19" function="internal">
        <lane id=":B_19_0" index="0" speed="9.26" length="14.34" shape="2219.36,1472.04,5.71 2219.63,1471.93,5.71 2224.00,1472.01,5.71 2227.83,1474.13,5.71 2231.10,1478.30,5.71"/>
    </edge>
    <edge id=":BA_0" function="internal">
        <lane id=":BA_0_0" index="0" speed="3.65" length="4.67" shape="2346.07,1677.44,5.71 2345.98,1678.88,5.71 2345.49,1679.62,5.71 2344.60,1679.68,5.71 2343.30,1679.04,5.71"/>
    </edge>
    <edge id=":BB_0" function="internal">
        <lane id=":BB_0_0" index="0" speed="3.65" length="4.67" shape="2431.86,1348.54,5.71 2433.30,1348.63,5.71 2434.05,1349.12,5.71 2434.10,1350.01,5.71 2433.46,1351.31,5.71"/>
    </edge>
    <edge id=":BC_0" function="internal">
        <lane id=":BC_0_0" index="0" speed="3.65" length="4.67" shape="2102.96,1262.75,5.71 2103.05,1261.31,5.71 2103.55,1260.56,5.71 2104.44,1260.51,5.71 2105.73,1261.15,5.71"/>
    </edge>
    <edge id=":B_intern_0" function="internal">
        <lane id=":B_intern_0_0" index="0" speed="40.00" length="8.54" shape="2065.54,1567.42,1.29 2063.66,1569.09,1.23 2062.88,1570.81,1.19 2062.09,1572.53,1.15 2060.21,1574.19,1.09"/>
        <lane id=":B_intern_0_1" index="1" speed="40.00" length="8.54" shape="2063.94,1564.65,1.29 2062.06,1566.31,1.23 2061.28,1568.04,1.19 2060.49,1569.76,1.15 2058.61,1571.42,1.09"/>
        <lane id=":B_intern_0_2" index="2" speed="40.00" length="8.54" shape="2063.94,1564.65,1.29 2057.01,1568.65,1.09"/>
    </edge>
    <edge id=":C_0" function="internal">
        <lane id=":C_0_0" index="0" speed="6.51" length="9.03" shape="1015.97,1021.92,-7.36 1013.67,1020.99,-7.39 1011.63,1021.03,-7.41 1009.84,1022.02,-7.43 1008.32,1023.97,-7.45"/>
    </edge>
    <edge id=":C_1" function="internal">
        <lane id=":C_1_0" index="0" speed="50.00" length="27.20" shape="1015.97,1021.92,-7.36 992.41,1008.32,-7.45"/>
        <lane id=":C_1_1" index="1" speed="50.00" length="27.20" shape="1017.57,1019.14,-7.36 994.01,1005.54,-7.45"/>
        <lane id=":C_1_2" index="2" speed="50.00" length="27.20" shape="1019.17,1016.37,-7.36 995.61,1002.77,-7.45"/>
    </edge>
    <edge id=":C_4" function="internal">
        <lane id=":C_4_0" index="0" speed="10.36" length="5.01" shape="1019.17,1016.37,-7.36 1015.22,1013.28,-7.38"/>
    </edge>
    <edge id=":C_20" function="internal">
        <lane id=":C_20_0" index="0" speed="10.36" length="19.50" shape="1015.22,1013.28,-7.38 1013.88,1012.23,-7.39 1011.19,1007.38,-7.41 1011.10,1001.84,-7.43 1013.60,995.61,-7.45"/>
    </edge>
    <edge id=":C_5" function="internal">
        <lane id=":C_5_0" index="0" speed="6.51" length="9.03" shape="1021.92,1000.41,-7.45 1020.99,1002.71,-7.43 1021.03,1004.75,-7.41 1022.02,1006.53,-7.39 1023.97,1008.06,-7.36"/>
    </edge>
    <edge id=":C_6" function="internal">
        <lane id=":C_6_0" index="0" speed="50.00" length="27.20" shape="1021.92,1000.41,-7.45 1008.32,1023.97,-7.45"/>
        <lane id=":C_6_1" index="1" speed="50.00" length="27.20" shape="1019.14,998.81,-7.45 1005.54,1022.37,-7.45"/>
        <lane id=":C_6_2" index="2" speed="50.00" length="27.20" shape="1016.37,997.21,-7.45 1002.77,1020.77,-7.45"/>
    </edge>
    <edge id=":C_9" function="internal">
        <lane id=":C_9_0" index="0" speed="10.36" length="5.01" shape="1016.37,997.21,-7.45 1013.28,1001.15,-7.45"/>
    </edge>
    <edge id=":C_21" function="internal">
        <lane id=":C_21_0" index="0" speed="10.36" length="19.50" shape="1013.28,1001.15,-7.45 1012.23,1002.49,-7.45 1007.38,1005.18,-7.45 1001.84,1005.28,-7.45 995.61,1002.77,-7.45"/>
    </edge>
    <edge id=":C_10" function="internal">
        <lane id=":C_10_0" index="0" speed="6.51" length="9.03" shape="1000.41,994.46,-7.45 1002.71,995.38,-7.45 1004.75,995.35,-7.45 1006.53,994.36,-7.45 1008.06,992.41,-7.45"/>
    </edge>
    <edge id=":C_11" function="internal">
        <lane id=":C_11_0" index="0" speed="50.00" length="27.20" shape="1000.41,994.46,-7.45 1023.97,1008.06,-7.36"/>
        <lane id=":C_11_1" index="1" speed="50.00" length="27.20" shape="998.81,997.23,-7.45 1022.37,1010.83,-7.36"/>
        <lane id=":C_11_2" index="2" speed="50.00" length="27.20" shape="997.21,1000.00,-7.45 1020.77,1013.60,-7.36"/>
    </edge>
    <edge id=":C_14" function="internal">
        <lane id=":C_14_0" index="0" speed="10.36" length="5.01" shape="997.21,1000.00,-7.45 1001.15,1003.10,-7.45"/>
    </edge>
    <edge id=":C_22" function="internal">
        <lane id=":C_22_0" index="0" speed="10.36" length="19.50" shape="1001.15,1003.10,-7.45 1002.49,1004.15,-7.45 1005.18,1008.99,-7.45 1005.28,1014.53,-7.45 1002.77,1020.77,-7.45"/>
    </edge>
    <edge id=":C_15" function="internal">
        <lane id=":C_15_0" index="0" speed="6.51" length="9.03" shape="994.46,1015.97,-7.45 995.38,1013.67,-7.45 995.35,1011.63,-7.45 994.36,1009.84,-7.45 992.41,1008.32,-7.45"/>
    </edge>
    <edge id=":C_16" function="internal">
        <lane id=":C_16_0" index="0" speed="50.00" length="27.20" shape="994.46,1015.97,-7.45 1008.06,992.41,-7.45"/>
        <lane id=":C_16_1" index="1" speed="50.00" length="27.20" shape="997.23,1017.57,-7.45 1010.83,994.01,-7.45"/>
        <lane id=":C_16_2" index="2" speed="50.00" length="27.20" shape="1000.00,1019.17,-7.45 1013.60,995.61,-7.45"/>
    </edge>
    <edge id=":C_19" function="internal">
        <lane id=":C_19_0" index="0" speed="10.36" length="5.01" shape="1000.00,1019.17,-7.45 1003.10,1015.22,-7.43"/>
    </edge>
    <edge id=":C_23" function="internal">
        <lane id=":C_23_0" index="0" speed="10.36" length="19.50" shape="1003.10,1015.22,-7.43 1004.15,1013.88,-7.43 1008.99,1011.19,-7.41 1014.53,1011.10,-7.39 1020.77,1013.60,-7.36"/>
    </edge>
    <edge id=":CA_0" function="internal">
        <lane id=":CA_0_0" index="0" speed="3.65" length="4.67" shape="1588.88,-0.80,-7.45 1590.17,-1.44,-7.45 1591.06,-1.39,-7.45 1591.56,-0.64,-7.45 1591.65,0.80,-7.45"/>
    </edge>
    <edge id=":CB_0" function="internal">
        <lane id=":CB_0_0" index="0" speed="3.65" length="4.67" shape="-0.80,427.50,-7.45 -1.44,426.20,-7.45 -1.39,425.31,-7.45 -0.64,424.82,-7.45 0.80,424.72,-7.45"/>
    </edge>
    <edge id=":CC_0" function="internal">
        <lane id=":CC_0_0" index="0" speed="3.65" length="4.67" shape="427.50,2017.17,-7.45 426.20,2017.81,-7.45 425.31,2017.76,-7.45 424.82,2017.01,-7.45 424.72,2015.57,-7.45"/>
    </edge>
    <edge id=":TL_0" function="internal">
        <lane id=":TL_0_0" index="0" speed="6.75" length="5.88" shape="2008.37,1598.12,-0.05 2008.20,1596.60,-0.05 2007.67,1595.29,-0.05 2006.80,1594.18,-0.05 2005.57,1593.27,-0.05"/>
        <lane id=":TL_0_1" index="1" speed="8.31" length="9.24" shape="2011.57,1598.12,-0.05 2011.30,1595.73,-0.05 2010.47,1593.67,-0.05 2009.10,1591.92,-0.05 2007.17,1590.50,-0.05"/>
        <lane id=":TL_0_2" index="2" speed="9.62" length="12.60" shape="2014.77,1598.12,-0.05 2014.40,1594.87,-0.05 2013.27,1592.05,-0.05 2011.40,1589.67,-0.05 2008.77,1587.72,-0.05"/>
    </edge>
    <edge id=":TL_3" function="internal">
        <lane id=":TL_3_0" index="0" speed="11.31" length="2.84" shape="2014.77,1598.12,-0.05 2015.16,1595.31,-0.04"/>
    </edge>
    <edge id=":TL_11" function="internal">
        <lane id=":TL_11_0" index="0" speed="11.31" length="14.82" shape="2015.16,1595.31,-0.04 2015.35,1593.95,-0.03 2017.07,1590.21,-0.02 2019.95,1586.90,-0.01 2023.97,1584.03"/>
    </edge>
    <edge id=":TL_4" function="internal">
        <lane id=":TL_4_0" index="0" speed="7.59" length="7.59" shape="2028.77,1592.34 2026.85,1593.66,-0.01 2025.47,1595.06,-0.03 2024.65,1596.54,-0.04 2024.37,1598.12,-0.05"/>
        <lane id=":TL_4_1" index="1" speed="9.00" length="10.94" shape="2027.17,1589.57 2024.55,1591.40,-0.01 2022.67,1593.44,-0.02 2021.55,1595.68,-0.04 2021.17,1598.12,-0.05"/>
    </edge>
    <edge id=":TL_6" function="internal">
        <lane id=":TL_6_0" index="0" speed="11.31" length="17.65" shape="2025.57,1586.80 2021.07,1588.85,-0.01 2016.77,1589.69,-0.03 2012.67,1589.31,-0.04 2008.77,1587.72,-0.05"/>
    </edge>
    <edge id=":TL_7" function="internal">
        <lane id=":TL_7_0" index="0" speed="8.35" length="9.34" shape="2013.57,1579.41,-0.05 2016.37,1580.82,-0.03 2018.77,1581.60,-0.02 2020.77,1581.75,-0.01 2022.37,1581.26"/>
    </edge>
    <edge id=":TL_8" function="internal">
        <lane id=":TL_8_0" index="0" speed="12.78" length="22.68" shape="2013.57,1579.41,-0.05 2018.30,1582.92,-0.05 2021.67,1587.20,-0.05 2023.70,1592.27,-0.05 2024.37,1598.12,-0.05"/>
        <lane id=":TL_8_1" index="1" speed="11.82" length="19.32" shape="2011.97,1582.18,-0.05 2016.00,1585.17,-0.05 2018.87,1588.82,-0.05 2020.60,1593.14,-0.05 2021.17,1598.12,-0.05"/>
        <lane id=":TL_8_2" index="2" speed="10.78" length="15.96" shape="2010.37,1584.95,-0.05 2013.70,1587.42,-0.05 2016.07,1590.44,-0.05 2017.50,1594.00,-0.05 2017.97,1598.12,-0.05"/>
    </edge>

    <edge id="A2AA" from="A" to="AA" priority="-1">
        <lane id="A2AA_0" index="0" speed="40.00" length="487.70" shape="2002.77,2099.56,-2.90 1515.08,2099.56,-2.90"/>
        <lane id="A2AA_1" index="1" speed="40.00" length="487.70" shape="2002.77,2096.36,-2.90 1515.08,2096.36,-2.90"/>
        <lane id="A2AA_2" index="2" speed="40.00" length="487.70" shape="2002.77,2093.16,-2.90 1515.08,2093.16,-2.90"/>
    </edge>
    <edge id="A2AB" from="A" to="AB" priority="-1">
        <lane id="A2AB_0" index="0" speed="40.00" length="487.70" shape="2024.37,2105.16,-2.90 2024.37,2592.86,-2.90"/>
        <lane id="A2AB_1" index="1" speed="40.00" length="487.70" shape="2021.17,2105.16,-2.90 2021.17,2592.86,-2.90"/>
        <lane id="A2AB_2" index="2" speed="40.00" length="487.70" shape="2017.97,2105.16,-2.90 2017.97,2592.86,-2.90"/>
    </edge>
    <edge id="A2AC" from="A" to="AC" priority="-1">
        <lane id="A2AC_0" index="0" speed="40.00" length="487.70" shape="2029.97,2083.56,-2.90 2517.67,2083.56,-2.90"/>
        <lane id="A2AC_1" index="1" speed="40.00" length="487.70" shape="2029.97,2086.76,-2.90 2517.67,2086.76,-2.90"/>
        <lane id="A2AC_2" index="2" speed="40.00" length="487.70" shape="2029.97,2089.96,-2.90 2517.67,2089.96,-2.90"/>
    </edge>
    <edge id="A2TL" from="A" to="TL" priority="-1">
        <lane id="A2TL_0" index="0" speed="40.00" length="479.85" shape="2008.37,2077.96,-2.82 2008.37,1598.12,-0.05"/>
        <lane id="A2TL_1" index="1" speed="40.00" length="479.85" shape="2011.57,2077.96,-2.82 2011.57,1598.12,-0.05"/>
        <lane id="A2TL_2" index="2" speed="40.00" length="479.85" shape="2014.77,2077.96,-2.82 2014.77,1598.12,-0.05"/>
    </edge>
    <edge id="AA2A" from="AA" to="A" priority="-1">
        <lane id="AA2A_0" index="0" speed="40.00" length="487.70" shape="1515.08,2083.56,-2.90 2002.77,2083.56,-2.90"/>
        <lane id="AA2A_1" index="1" speed="40.00" length="487.70" shape="1515.08,2086.76,-2.90 2002.77,2086.76,-2.90"/>
        <lane id="AA2A_2" index="2" speed="40.00" length="487.70" shape="1515.08,2089.96,-2.90 2002.77,2089.96,-2.90"/>
    </edge>
    <edge id="AB2A" from="AB" to="A" priority="-1">
        <lane id="AB2A_0" index="0" speed="40.00" length="487.70" shape="2008.37,2592.86,-2.90 2008.37,2105.16,-2.90"/>
        <lane id="AB2A_1" index="1" speed="40.00" length="487.70" shape="2011.57,2592.86,-2.90 2011.57,2105.16,-2.90"/>
        <lane id="AB2A_2" index="2" speed="40.00" length="487.70" shape="2014.77,2592.86,-2.90 2014.77,2105.16,-2.90"/>
    </edge>
    <edge id="AC2A" from="AC" to="A" priority="-1">
        <lane id="AC2A_0" index="0" speed="40.00" length="487.70" shape="2517.67,2099.56,-2.90 2029.97,2099.56,-2.90"/>
        <lane id="AC2A_1" index="1" speed="40.00" length="487.70" shape="2517.67,2096.36,-2.90 2029.97,2096.36,-2.90"/>
        <lane id="AC2A_2" index="2" speed="40.00" length="487.70" shape="2517.67,2093.16,-2.90 2029.97,2093.16,-2.90"/>
    </edge>
    <edge id="B2BA" from="B" to="BA" priority="-1">
        <lane id="B2BA_0" index="0" speed="40.00" length="229.94" shape="2233.87,1476.70,5.71 2348.85,1675.84,5.71"/>
        <lane id="B2BA_1" index="1" speed="40.00" length="229.94" shape="2231.10,1478.30,5.71 2346.07,1677.44,5.71"/>
    </edge>
    <edge id="B2BB" from="B" to="BB" priority="-1">
        <lane id="B2BB_0" index="0" speed="40.00" length="229.94" shape="2231.12,1460.74,5.71 2430.26,1345.76,5.71"/>
        <lane id="B2BB_1" index="1" speed="40.00" length="229.94" shape="2232.72,1463.51,5.71 2431.86,1348.54,5.71"/>
    </edge>
    <edge id="B2BC" from="B" to="BC" priority="-1">
        <lane id="B2BC_0" index="0" speed="40.00" length="229.94" shape="2215.16,1463.49,5.71 2100.19,1264.35,5.71"/>
        <lane id="B2BC_1" index="1" speed="40.00" length="229.94" shape="2217.93,1461.89,5.71 2102.96,1262.75,5.71"/>
    </edge>
    <edge id="B2TL" from="B" to="B_intern" priority="-1">
        <lane id="B2TL_0" index="0" speed="40.00" length="176.00" shape="2217.91,1479.45,5.71 2065.54,1567.42,1.29"/>
        <lane id="B2TL_1" index="1" speed="40.00" length="176.00" shape="2216.31,1476.68,5.71 2063.94,1564.65,1.29"/>
    </edge>
    <edge id="B2TL_intern" from="B_intern" to="TL" priority="-1">
        <lane id="B2TL_intern_0" index="0" speed="40.00" length="36.32" shape="2060.21,1574.19,1.09 2028.77,1592.34"/>
        <lane id="B2TL_intern_1" index="1" speed="40.00" length="36.32" shape="2058.61,1571.42,1.09 2027.17,1589.57"/>
        <lane id="B2TL_intern_2" index="2" speed="40.00" length="36.32" shape="2057.01,1568.65,1.09 2025.57,1586.80"/>
    </edge>
    <edge id="BA2B" from="BA" to="B" priority="-1">
        <lane id="BA2B_0" index="0" speed="40.00" length="229.94" shape="2340.53,1680.64,5.71 2225.56,1481.50,5.71"/>
        <lane id="BA2B_1" index="1" speed="40.00" length="229.94" shape="2343.30,1679.04,5.71 2228.33,1479.90,5.71"/>
    </edge>
    <edge id="BB2B" from="BB" to="B" priority="-1">
        <lane id="BB2B_0" index="0" speed="40.00" length="229.94" shape="2435.06,1354.08,5.71 2235.92,1469.05,5.71"/>
        <lane id="BB2B_1" index="1" speed="40.00" length="229.94" shape="2433.46,1351.31,5.71 2234.32,1466.28,5.71"/>
    </edge>
    <edge id="BC2B" from="BC" to="B" priority="-1">
        <lane id="BC2B_0" index="0" speed="40.00" length="229.94" shape="2108.50,1259.55,5.71 2223.47,1458.69,5.71"/>
        <lane id="BC2B_1" index="1" speed="40.00" length="229.94" shape="2105.73,1261.15,5.71 2220.70,1460.29,5.71"/>
    </edge>
    <edge id="C2CA" from="C" to="CA" priority="-1">
        <lane id="C2CA_0" index="0" speed="50.00" length="1150.55" shape="1008.06,992.41,-7.45 1583.34,-4.00,-7.45"/>
        <lane id="C2CA_1" index="1" speed="50.00" length="1150.55" shape="1010.83,994.01,-7.45 1586.11,-2.40,-7.45"/>
        <lane id="C2CA_2" index="2" speed="50.00" length="1150.55" shape="1013.60,995.61,-7.45 1588.88,-0.80,-7.45"/>
    </edge>
    <edge id="C2CB" from="C" to="CB" priority="-1">
        <lane id="C2CB_0" index="0" speed="50.00" length="1150.55" shape="992.41,1008.32,-7.45 -4.00,433.04,-7.45"/>
        <lane id="C2CB_1" index="1" speed="50.00" length="1150.55" shape="994.01,1005.54,-7.45 -2.40,430.27,-7.45"/>
        <lane id="C2CB_2" index="2" speed="50.00" length="1150.55" shape="995.61,1002.77,-7.45 -0.80,427.50,-7.45"/>
    </edge>
    <edge id="C2CC" from="C" to="CC" priority="-1">
        <lane id="C2CC_0" index="0" speed="50.00" length="1150.55" shape="1008.32,1023.97,-7.45 433.04,2020.37,-7.45"/>
        <lane id="C2CC_1" index="1" speed="50.00" length="1150.55" shape="1005.54,1022.37,-7.45 430.27,2018.77,-7.45"/>
        <lane id="C2CC_2" index="2" speed="50.00" length="1150.55" shape="1002.77,1020.77,-7.45 427.50,2017.17,-7.45"/>
    </edge>
    <edge id="C2TL" from="C" to="TL" priority="-1">
        <lane id="C2TL_0" index="0" speed="50.00" length="1142.73" shape="1023.97,1008.06,-7.36 2013.57,1579.41,-0.05"/>
        <lane id="C2TL_1" index="1" speed="50.00" length="1142.73" shape="1022.37,1010.83,-7.36 2011.97,1582.18,-0.05"/>
        <lane id="C2TL_2" index="2" speed="50.00" length="1142.73" shape="1020.77,1013.60,-7.36 2010.37,1584.95,-0.05"/>
    </edge>
    <edge id="CA2C" from="CA" to="C" priority="-1">
        <lane id="CA2C_0" index="0" speed="50.00" length="1150.55" shape="1597.19,4.00,-7.45 1021.92,1000.41,-7.45"/>
        <lane id="CA2C_1" index="1" speed="50.00" length="1150.55" shape="1594.42,2.40,-7.45 1019.14,998.81,-7.45"/>
        <lane id="CA2C_2" index="2" speed="50.00" length="1150.55" shape="1591.65,0.80,-7.45 1016.37,997.21,-7.45"/>
    </edge>
    <edge id="CB2C" from="CB" to="C" priority="-1">
        <lane id="CB2C_0" index="0" speed="50.00" length="1150.55" shape="4.00,419.18,-7.45 1000.41,994.46,-7.45"/>
        <lane id="CB2C_1" index="1" speed="50.00" length="1150.55" shape="2.40,421.95,-7.45 998.81,997.23,-7.45"/>
        <lane id="CB2C_2" index="2" speed="50.00" length="1150.55" shape="0.80,424.72,-7.45 997.21,1000.00,-7.45"/>
    </edge>
    <edge id="CC2C" from="CC" to="C" priority="-1">
        <lane id="CC2C_0" index="0" speed="50.00" length="1150.55" shape="419.18,2012.37,-7.45 994.46,1015.97,-7.45"/>
        <lane id="CC2C_1" index="1" speed="50.00" length="1150.55" shape="421.95,2013.97,-7.45 997.23,1017.57,-7.45"/>
        <lane id="CC2C_2" index="2" speed="50.00" length="1150.55" shape="424.72,2015.57,-7.45 1000.00,1019.17,-7.45"/>
    </edge>
    <edge id="TL2A" from="TL" to="A" priority="-1">
        <lane id="TL2A_0" index="0" speed="40.00" length="479.85" shape="2024.37,1598.12,-0.05 2024.37,2077.96,-2.82"/>
        <lane id="TL2A_1" index="1" speed="40.00" length="479.85" shape="2021.17,1598.12,-0.05 2021.17,2077.96,-2.82"/>
        <lane id="TL2A_2" index="2" speed="40.00" length="479.85" shape="2017.97,1598.12,-0.05 2017.97,2077.96,-2.82"/>
    </edge>
    <edge id="TL2B" from="TL" to="B" priority="-1">
        <lane id="TL2B_0" index="0" speed="40.00" length="220.32" shape="2022.37,1581.26 2213.11,1471.14,5.71"/>
        <lane id="TL2B_1" index="1" speed="40.00" length="220.32" shape="2023.97,1584.03 2214.71,1473.91,5.71"/>
    </edge>
    <edge id="TL2C" from="TL" to="C" priority="-1">
        <lane id="TL2C_0" index="0" speed="50.00" length="1142.73" shape="2005.57,1593.27,-0.05 1015.97,1021.92,-7.36"/>
        <lane id="TL2C_1" index="1" speed="50.00" length="1142.73" shape="2007.17,1590.50,-0.05 1017.57,1019.14,-7.36"/>
        <lane id="TL2C_2" index="2" speed="50.00" length="1142.73" shape="2008.77,1587.72,-0.05 1019.17,1016.37,-7.36"/>
    </edge>

    <tlLogic id="A" type="static" programID="0" offset="0">
        <phase duration="37" state="GGGGgrrrrrGGGGgrrrrr"/>
        <phase duration="8"  state="yyyyyrrrrryyyyyrrrrr"/>
        <phase duration="37" state="rrrrrGGGGgrrrrrGGGGg"/>
        <phase duration="8"  state="rrrrryyyyyrrrrryyyyy"/>
    </tlLogic>
    <tlLogic id="AA" type="static" programID="0" offset="0">
        <phase duration="77" state="G"/>
        <phase duration="8"  state="y"/>
        <phase duration="5"  state="r"/>
    </tlLogic>
    <tlLogic id="AB" type="static" programID="0" offset="0">
        <phase duration="77" state="G"/>
        <phase duration="8"  state="y"/>
        <phase duration="5"  state="r"/>
    </tlLogic>
    <tlLogic id="AC" type="static" programID="0" offset="0">
        <phase duration="77" state="G"/>
        <phase duration="8"  state="y"/>
        <phase duration="5"  state="r"/>
    </tlLogic>
    <tlLogic id="B" type="static" programID="0" offset="0">
        <phase duration="37" state="rrrrGGGgrrrrGGGg"/>
        <phase duration="8"  state="rrrryyyyrrrryyyy"/>
        <phase duration="37" state="GGGgrrrrGGGgrrrr"/>
        <phase duration="8"  state="yyyyrrrryyyyrrrr"/>
    </tlLogic>
    <tlLogic id="BA" type="static" programID="0" offset="0">
        <phase duration="77" state="G"/>
        <phase duration="8"  state="y"/>
        <phase duration="5"  state="r"/>
    </tlLogic>
    <tlLogic id="BB" type="static" programID="0" offset="0">
        <phase duration="77" state="G"/>
        <phase duration="8"  state="y"/>
        <phase duration="5"  state="r"/>
    </tlLogic>
    <tlLogic id="BC" type="static" programID="0" offset="0">
        <phase duration="77" state="G"/>
        <phase duration="8"  state="y"/>
        <phase duration="5"  state="r"/>
    </tlLogic>
    <tlLogic id="C" type="static" programID="0" offset="0">
        <phase duration="35" state="GGGGgrrrrrGGGGgrrrrr"/>