<?xml version="1.0" encoding="UTF-8"?>

<!-- generated on 2022-10-11 16:45:22 by Eclipse SUMO netconvert Version 1.14.1
<configuration xmlns:xsi="http://www.w3.org/2001/XMLSchema-instance" xsi:noNamespaceSchemaLocation="http://sumo.dlr.de/xsd/netconvertConfiguration.xsd">

    <input>
        <node-files value="../data/salt-lake-city/nodes.nod.xml"/>
        <edge-files value="../data/salt-lake-city/edges.edg.xml"/>
        <connection-files value="../data/salt-lake-city/connections.con.xml"/>
    </input>

    <output>
        <output-file value="../data/salt-lake-city/sumo/net/313.net.xml"/>
    </output>

    <tls_building>
        <tls.minor-left.max-speed value="1"/>
    </tls_building>

    <report>
        <verbose value="true"/>
    </report>

</configuration>
-->

<net version="1.9" junctionCornerDetail="5" limitTurnSpeed="5.50" xmlns:xsi="http://www.w3.org/2001/XMLSchema-instance" xsi:noNamespaceSchemaLocation="http://sumo.dlr.de/xsd/net_file.xsd">

    <location netOffset="741.84,514.92" convBoundary="0.00,0.00,1483.68,1998.60" origBoundary="-741.84,-514.92,741.84,1483.68" projParameter="!"/>

    <edge id=":A_0" function="internal">
        <lane id=":A_0_0" index="0" speed="9.51" length="20.48" shape="740.24,1276.76,-6.78 739.09,1274.31,-6.78 735.64,1272.56,-6.78 729.89,1271.51,-6.78 721.84,1271.16,-6.78"/>
    </edge>
    <edge id=":A_1" function="internal">
        <lane id=":A_1_0" index="0" speed="50.00" length="42.36" shape="740.24,1276.76,-6.78 738.24,1271.35,-6.76 733.84,1262.76,-6.72 729.44,1251.17,-6.66 727.44,1236.76,-6.60"/>
    </edge>
    <edge id=":A_2" function="internal">
        <lane id=":A_2_0" index="0" speed="9.51" length="20.48" shape="761.84,1258.36,-6.78 759.39,1259.51,-6.78 757.64,1262.96,-6.78 756.59,1268.71,-6.78 756.24,1276.76,-6.78"/>
    </edge>
    <edge id=":A_3" function="internal">
        <lane id=":A_3_0" index="0" speed="50.00" length="42.36" shape="761.84,1258.36,-6.78 756.44,1260.36,-6.78 747.84,1264.76,-6.78 736.25,1269.16,-6.78 721.84,1271.16,-6.78"/>
    </edge>
    <edge id=":A_4" function="internal">
        <lane id=":A_4_0" index="0" speed="9.51" length="20.48" shape="743.44,1236.76,-6.60 744.59,1239.21,-6.62 748.04,1240.96,-6.66 753.79,1242.01,-6.71 761.84,1242.36,-6.78"/>
    </edge>
    <edge id=":A_5" function="internal">
        <lane id=":A_5_0" index="0" speed="50.00" length="42.36" shape="743.44,1236.76,-6.60 745.44,1242.17,-6.63 749.84,1250.76,-6.67 754.24,1262.35,-6.72 756.24,1276.76,-6.78"/>
    </edge>
    <edge id=":A_6" function="internal">
        <lane id=":A_6_0" index="0" speed="9.51" length="20.48" shape="721.84,1255.16,-6.78 724.29,1254.01,-6.76 726.04,1250.56,-6.72 727.09,1244.81,-6.67 727.44,1236.76,-6.60"/>
    </edge>
    <edge id=":A_7" function="internal">
        <lane id=":A_7_0" index="0" speed="50.00" length="42.36" shape="721.84,1255.16,-6.78 727.25,1253.16,-6.78 735.84,1248.76,-6.78 747.44,1244.36,-6.78 761.84,1242.36,-6.78"/>
    </edge>
    <edge id=":AA_0" function="internal">
        <lane id=":AA_0_0" index="0" speed="3.65" length="4.67" shape="-0.00,1258.36,-6.78 -1.20,1257.56,-6.78 -1.60,1256.76,-6.78 -1.20,1255.96,-6.78 -0.00,1255.16,-6.78"/>
    </edge>
    <edge id=":AB_0" function="internal">
        <lane id=":AB_0_0" index="0" speed="3.65" length="4.67" shape="743.44,1998.60,-6.78 742.64,1999.80,-6.78 741.84,2000.20,-6.78 741.04,1999.80,-6.78 740.24,1998.60,-6.78"/>
    </edge>
    <edge id=":AC_0" function="internal">
        <lane id=":AC_0_0" index="0" speed="3.65" length="4.67" shape="1483.68,1255.16,-6.78 1484.88,1255.96,-6.78 1485.28,1256.76,-6.78 1484.88,1257.56,-6.78 1483.68,1258.36,-6.78"/>
    </edge>
    <edge id=":B_0" function="internal">
        <lane id=":B_0_0" index="0" speed="9.51" length="20.48" shape="882.08,457.05,-4.77 877.75,450.25,-4.77 873.96,445.80,-4.77 870.72,443.68,-4.77 868.03,443.91,-4.77"/>
    </edge>
    <edge id=":B_1" function="internal">
        <lane id=":B_1_0" index="0" speed="70.00" length="40.89" shape="882.08,457.05,-4.77 876.60,443.57,-4.77 874.62,431.33,-4.77 874.13,421.69,-4.77 873.16,416.01,-4.77"/>
        <lane id=":B_1_1" index="1" speed="70.00" length="40.89" shape="884.85,455.45,-4.77 879.03,442.38,-4.77 876.09,430.67,-4.77 874.60,421.49,-4.77 873.16,416.01,-4.77"/>
        <lane id=":B_1_2" index="2" speed="70.00" length="40.89" shape="887.62,453.85,-4.77 881.44,441.14,-4.77 877.53,429.97,-4.77 875.05,421.28,-4.77 873.16,416.01,-4.77"/>
        <lane id=":B_1_3" index="3" speed="70.00" length="40.89" shape="890.39,452.25,-4.77 873.16,416.01,-4.77"/>
        <lane id=":B_1_4" index="4" speed="70.00" length="40.89" shape="893.16,450.65,-4.77 873.16,416.01,-4.77"/>
    </edge>
    <edge id=":B_6" function="internal">
        <lane id=":B_6_0" index="0" speed="12.28" length="5.01" shape="893.16,450.65,-4.77 891.29,446.00,-4.77"/>
    </edge>
    <edge id=":B_28" function="internal">
        <lane id=":B_28_0" index="0" speed="12.28" length="29.82" shape="891.29,446.00,-4.77 889.61,441.79,-4.77 889.74,433.92,-4.77 893.56,427.04,-4.77 901.07,421.14,-4.77"/>
    </edge>
    <edge id=":B_7" function="internal">
        <lane id=":B_7_0" index="0" speed="9.51" length="20.48" shape="909.07,435.00,-4.77 902.27,439.33,-4.77 897.82,443.11,-4.77 895.70,446.35,-4.77 895.93,449.05,-4.77"/>
    </edge>
    <edge id=":B_8" function="internal">
        <lane id=":B_8_0" index="0" speed="70.00" length="40.89" shape="909.07,435.00,-4.77 895.59,440.47,-4.77 883.35,442.46,-4.77 873.71,442.94,-4.77 868.03,443.91,-4.77"/>
        <lane id=":B_8_1" index="1" speed="70.00" length="40.89" shape="907.47,432.23,-4.77 894.40,438.04,-4.77 882.69,440.99,-4.77 873.51,442.48,-4.77 868.03,443.91,-4.77"/>
        <lane id=":B_8_2" index="2" speed="70.00" length="40.89" shape="905.87,429.46,-4.77 893.16,435.64,-4.77 881.99,439.54,-4.77 873.30,442.02,-4.77 868.03,443.91,-4.77"/>
        <lane id=":B_8_3" index="3" speed="70.00" length="40.89" shape="904.27,426.68,-4.77 868.03,443.91,-4.77"/>
        <lane id=":B_8_4" index="4" speed="70.00" length="40.89" shape="902.67,423.91,-4.77 868.03,443.91,-4.77"/>
    </edge>
    <edge id=":B_13" function="internal">
        <lane id=":B_13_0" index="0" speed="12.28" length="5.01" shape="902.67,423.91,-4.77 898.01,425.78,-4.77"/>
    </edge>
    <edge id=":B_29" function="internal">
        <lane id=":B_29_0" index="0" speed="12.28" length="29.82" shape="898.01,425.78,-4.77 893.81,427.47,-4.77 885.94,427.34,-4.77 879.06,423.52,-4.77 873.16,416.01,-4.77"/>
    </edge>
    <edge id=":B_14" function="internal">
        <lane id=":B_14_0" index="0" speed="9.51" length="20.48" shape="887.02,408.01,-4.77 891.35,414.80,-4.77 895.13,419.26,-4.77 898.37,421.37,-4.77 901.07,421.14,-4.77"/>
    </edge>
    <edge id=":B_15" function="internal">
        <lane id=":B_15_0" index="0" speed="70.00" length="40.89" shape="887.02,408.01,-4.77 892.49,421.48,-4.77 894.47,433.72,-4.77 894.96,443.37,-4.77 895.93,449.05,-4.77"/>
        <lane id=":B_15_1" index="1" speed="70.00" length="40.89" shape="884.25,409.61,-4.77 890.06,422.68,-4.77 893.01,434.38,-4.77 894.50,443.56,-4.77 895.93,449.05,-4.77"/>
        <lane id=":B_15_2" index="2" speed="70.00" length="40.89" shape="881.47,411.21,-4.77 887.65,423.91,-4.77 891.56,435.08,-4.77 894.04,443.78,-4.77 895.93,449.05,-4.77"/>
        <lane id=":B_15_3" index="3" speed="70.00" length="40.89" shape="878.70,412.81,-4.77 895.93,449.05,-4.77"/>
        <lane id=":B_15_4" index="4" speed="70.00" length="40.89" shape="875.93,414.41,-4.77 895.93,449.05,-4.77"/>
    </edge>
    <edge id=":B_20" function="internal">
        <lane id=":B_20_0" index="0" speed="12.28" length="5.01" shape="875.93,414.41,-4.77 877.80,419.06,-4.77"/>
    </edge>
    <edge id=":B_30" function="internal">
        <lane id=":B_30_0" index="0" speed="12.28" length="29.82" shape="877.80,419.06,-4.77 879.49,423.27,-4.77 879.36,431.14,-4.77 875.54,438.02,-4.77 868.03,443.91,-4.77"/>
    </edge>
    <edge id=":B_21" function="internal">
        <lane id=":B_21_0" index="0" speed="9.51" length="20.48" shape="860.03,430.06,-4.77 866.82,425.73,-4.77 871.28,421.94,-4.77 873.39,418.70,-4.77 873.16,416.01,-4.77"/>
    </edge>
    <edge id=":B_22" function="internal">
        <lane id=":B_22_0" index="0" speed="70.00" length="40.89" shape="860.03,430.06,-4.77 873.50,424.59,-4.77 885.74,422.60,-4.77 895.39,422.11,-4.77 901.07,421.14,-4.77"/>
        <lane id=":B_22_1" index="1" speed="70.00" length="40.89" shape="861.63,432.83,-4.77 874.69,427.01,-4.77 886.40,424.07,-4.77 895.58,422.58,-4.77 901.07,421.14,-4.77"/>
        <lane id=":B_22_2" index="2" speed="70.00" length="40.89" shape="863.23,435.60,-4.77 875.93,429.42,-4.77 887.10,425.51,-4.77 895.79,423.03,-4.77 901.07,421.14,-4.77"/>
        <lane id=":B_22_3" index="3" speed="70.00" length="40.89" shape="864.83,438.37,-4.77 901.07,421.14,-4.77"/>
        <lane id=":B_22_4" index="4" speed="70.00" length="40.89" shape="866.43,441.14,-4.77 901.07,421.14,-4.77"/>
    </edge>
    <edge id=":B_27" function="internal">
        <lane id=":B_27_0" index="0" speed="12.28" length="5.01" shape="866.43,441.14,-4.77 871.08,439.27,-4.77"/>
    </edge>
    <edge id=":B_31" function="internal">
        <lane id=":B_31_0" index="0" speed="12.28" length="29.82" shape="871.08,439.27,-4.77 875.29,437.59,-4.77 883.16,437.72,-4.77 890.04,441.54,-4.77 895.93,449.05,-4.77"/>
    </edge>
    <edge id=":BA_0" function="internal">
        <lane id=":BA_0_0" index="0" speed="3.65" length="4.67" shape="968.32,574.43,-4.77 968.23,575.87,-4.77 967.74,576.62,-4.77 966.84,576.67,-4.77 965.55,576.03,-4.77"/>
    </edge>
    <edge id=":BB_0" function="internal">
        <lane id=":BB_0_0" index="0" speed="3.65" length="4.67" shape="1026.45,348.75,-4.77 1027.89,348.84,-4.77 1028.64,349.34,-4.77 1028.69,350.23,-4.77 1028.05,351.52,-4.77"/>
    </edge>
    <edge id=":BC_0" function="internal">
        <lane id=":BC_0_0" index="0" speed="3.65" length="4.67" shape="800.77,290.62,-4.77 800.86,289.18,-4.77 801.36,288.44,-4.77 802.25,288.38,-4.77 803.54,289.02,-4.77"/>
    </edge>
    <edge id=":TL_0" function="internal">
        <lane id=":TL_0_0" index="0" speed="12.78" length="10.73" shape="727.44,519.07,-0.04 728.12,513.23,-0.06 729.92,508.73,-0.08"/>
        <lane id=":TL_0_1" index="1" speed="11.82" length="8.79" shape="730.64,519.07,-0.04 731.22,514.10,-0.06 732.62,510.59,-0.08"/>
        <lane id=":TL_0_2" index="2" speed="10.78" length="6.73" shape="733.84,519.07,-0.04 734.32,514.96,-0.06 735.28,512.55,-0.07"/>
        <lane id=":TL_0_3" index="3" speed="9.62" length="4.42" shape="737.04,519.07,-0.04 737.42,515.83,-0.06 737.84,514.76,-0.07"/>
        <lane id=":TL_0_4" index="4" speed="8.31" length="1.20" shape="740.24,519.07,-0.04 740.38,517.88,-0.05"/>
    </edge>
    <edge id=":TL_10" function="internal">
        <lane id=":TL_10_0" index="0" speed="12.78" length="11.95" shape="729.92,508.73,-0.08 730.14,508.16,-0.08 733.52,503.88,-0.10 738.24,500.37,-0.12"/>
    </edge>
    <edge id=":TL_11" function="internal">
        <lane id=":TL_11_0" index="0" speed="11.82" length="10.53" shape="732.62,510.59,-0.08 732.94,509.78,-0.08 735.82,506.13,-0.10 739.84,503.14,-0.12"/>
    </edge>
    <edge id=":TL_12" function="internal">
        <lane id=":TL_12_0" index="0" speed="10.78" length="9.23" shape="735.28,512.55,-0.07 735.74,511.40,-0.08 738.12,508.38,-0.10 741.44,505.91,-0.12"/>
    </edge>
    <edge id=":TL_13" function="internal">
        <lane id=":TL_13_0" index="0" speed="9.62" length="8.18" shape="737.84,514.76,-0.07 738.54,513.01,-0.08 740.42,510.63,-0.10 743.04,508.68,-0.12"/>
    </edge>
    <edge id=":TL_14" function="internal">
        <lane id=":TL_14_0" index="0" speed="8.31" length="8.04" shape="740.38,517.88,-0.05 740.52,516.69,-0.06 741.34,514.63,-0.08 742.72,512.88,-0.10 744.64,511.45,-0.12"/>
    </edge>
    <edge id=":TL_5" function="internal">
        <lane id=":TL_5_0" index="0" speed="6.75" length="5.88" shape="746.24,514.23,-0.14 745.02,515.13,-0.11 744.14,516.25,-0.09 743.62,517.56,-0.06 743.44,519.07,-0.04"/>
    </edge>
    <edge id=":TL_6" function="internal">
        <lane id=":TL_6_0" index="0" speed="9.07" length="11.11" shape="727.84,497.60,-0.17 731.34,499.42,-0.15 734.24,500.48,-0.14 736.54,500.80,-0.13 738.24,500.37,-0.12"/>
    </edge>
    <edge id=":TL_7" function="internal">
        <lane id=":TL_7_0" index="0" speed="14.11" length="6.90" shape="727.84,497.60,-0.17 733.52,501.52,-0.14"/>
        <lane id=":TL_7_1" index="1" speed="13.75" length="6.23" shape="726.24,500.37,-0.17 731.46,503.76,-0.14"/>
        <lane id=":TL_7_2" index="2" speed="13.44" length="25.15" shape="724.64,503.14,-0.17 732.87,508.21,-0.12 738.74,512.55,-0.08 742.27,516.17,-0.05 743.44,519.07,-0.04"/>
    </edge>
    <edge id=":TL_15" function="internal">
        <lane id=":TL_15_0" index="0" speed="14.11" length="20.89" shape="733.52,501.52,-0.14 734.67,502.32,-0.13 739.54,507.47,-0.10 742.47,513.06,-0.07 743.44,519.07,-0.04"/>
    </edge>
    <edge id=":TL_16" function="internal">
        <lane id=":TL_16_0" index="0" speed="13.75" length="20.13" shape="731.46,503.76,-0.14 733.77,505.26,-0.13 739.14,510.01,-0.09 742.37,514.61,-0.06 743.44,519.07,-0.04"/>
    </edge>

    <edge id="A2AA" from="A" to="AA" priority="-1">
        <lane id="A2AA_0" index="0" speed="50.00" length="721.84" shape="721.84,1271.16,-6.78 -0.00,1271.16,-6.78"/>
        <lane id="A2AA_1" index="1" speed="50.00" length="721.84" shape="721.84,1267.96,-6.78 -0.00,1267.96,-6.78"/>
        <lane id="A2AA_2" index="2" speed="50.00" length="721.84" shape="721.84,1264.76,-6.78 -0.00,1264.76,-6.78"/>
        <lane id="A2AA_3" index="3" speed="50.00" length="721.84" shape="721.84,1261.56,-6.78 -0.00,1261.56,-6.78"/>
        <lane id="A2AA_4" index="4" speed="50.00" length="721.84" shape="721.84,1258.36,-6.78 -0.00,1258.36,-6.78"/>
    </edge>
    <edge id="A2AB" from="A" to="AB" priority="-1">
        <lane id="A2AB_0" index="0" speed="50.00" length="721.84" shape="756.24,1276.76,-6.78 756.24,1998.60,-6.78"/>
        <lane id="A2AB_1" index="1" speed="50.00" length="721.84" shape="753.04,1276.76,-6.78 753.04,1998.60,-6.78"/>
        <lane id="A2AB_2" index="2" speed="50.00" length="721.84" shape="749.84,1276.76,-6.78 749.84,1998.60,-6.78"/>
        <lane id="A2AB_3" index="3" speed="50.00" length="721.84" shape="746.64,1276.76,-6.78 746.64,1998.60,-6.78"/>
        <lane id="A2AB_4" index="4" speed="50.00" length="721.84" shape="743.44,1276.76,-6.78 743.44,1998.60,-6.78"/>
    </edge>
    <edge id="A2AC" from="A" to="AC" priority="-1">
        <lane id="A2AC_0" index="0" speed="50.00" length="721.84" shape="761.84,1242.36,-6.78 1483.68,1242.36,-6.78"/>
        <lane id="A2AC_1" index="1" speed="50.00" length="721.84" shape="761.84,1245.56,-6.78 1483.68,1245.56,-6.78"/>
        <lane id="A2AC_2" index="2" speed="50.00" length="721.84" shape="761.84,1248.76,-6.78 1483.68,1248.76,-6.78"/>
        <lane id="A2AC_3" index="3" speed="50.00" length="721.84" shape="761.84,1251.96,-6.78 1483.68,1251.96,-6.78"/>
        <lane id="A2AC_4" index="4" speed="50.00" length="721.84" shape="761.84,1255.16,-6.78 1483.68,1255.16,-6.78"/>
    </edge>
    <edge id="A2TL" from="A" to="TL" priority="-1">
        <lane id="A2TL_0" index="0" speed="50.00" length="717.71" shape="727.44,1236.76,-6.60 727.44,519.07,-0.04"/>
        <lane id="A2TL_1" index="1" speed="50.00" length="717.71" shape="730.64,1236.76,-6.60 730.64,519.07,-0.04"/>
        <lane id="A2TL_2" index="2" speed="50.00" length="717.71" shape="733.84,1236.76,-6.60 733.84,519.07,-0.04"/>
        <lane id="A2TL_3" index="3" speed="50.00" length="717.71" shape="737.04,1236.76,-6.60 737.04,519.07,-0.04"/>
        <lane id="A2TL_4" index="4" speed="50.00" length="717.71" shape="740.24,1236.76,-6.60 740.24,519.07,-0.04"/>
    </edge>
    <edge id="AA2A" from="AA" to="A" priority="-1">
        <lane id="AA2A_0" index="0" speed="50.00" length="721.84" shape="-0.00,1255.16,-6.78 721.84,1255.16,-6.78"/>
    </edge>
    <edge id="AB2A" from="AB" to="A" priority="-1">
        <lane id="AB2A_0" index="0" speed="50.00" length="721.84" shape="740.24,1998.60,-6.78 740.24,1276.76,-6.78"/>
    </edge>
    <edge id="AC2A" from="AC" to="A" priority="-1">
        <lane id="AC2A_0" index="0" speed="50.00" length="721.84" shape="1483.68,1258.36,-6.78 761.84,1258.36,-6.78"/>
    </edge>
    <edge id="B2BA" from="B" to="BA" priority="-1">
        <lane id="B2BA_0" index="0" speed="70.00" length="144.78" shape="895.93,449.05,-4.77 968.32,574.43,-4.77"/>
    </edge>
    <edge id="B2BB" from="B" to="BB" priority="-1">
        <lane id="B2BB_0" index="0" speed="70.00" length="144.78" shape="901.07,421.14,-4.77 1026.45,348.75,-4.77"/>
    </edge>
    <edge id="B2BC" from="B" to="BC" priority="-1">
        <lane id="B2BC_0" index="0" speed="70.00" length="144.78" shape="873.16,416.01,-4.77 800.77,290.62,-4.77"/>
    </edge>
    <edge id="B2TL" from="B" to="TL" priority="-1">
        <lane id="B2TL_0" index="0" speed="70.00" length="140.70" shape="868.03,443.91,-4.77 746.24,514.23,-0.14"/>
    </edge>
    <edge id="BA2B" from="BA" to="B" priority="-1">
        <lane id="BA2B_0" index="0" speed="70.00" length="144.78" shape="954.47,582.43,-4.77 882.08,457.05,-4.77"/>
        <lane id="BA2B_1" index="1" speed="70.00" length="144.78" shape="957.24,580.83,-4.77 884.85,455.45,-4.77"/>
        <lane id="BA2B_2" index="2" speed="70.00" length="144.78" shape="960.01,579.23,-4.77 887.62,453.85,-4.77"/>
        <lane id="BA2B_3" index="3" speed="70.00" length="144.78" shape="962.78,577.63,-4.77 890.39,452.25,-4.77"/>
        <lane id="BA2B_4" index="4" speed="70.00" length="144.78" shape="965.55,576.03,-4.77 893.16,450.65,-4.77"/>
    </edge>
    <edge id="BB2B" from="BB" to="B" priority="-1">
        <lane id="BB2B_0" index="0" speed="70.00" length="144.78" shape="1034.45,362.61,-4.77 909.07,435.00,-4.77"/>
        <lane id="BB2B_1" index="1" speed="70.00" length="144.78" shape="1032.85,359.84,-4.77 907.47,432.23,-4.77"/>
        <lane id="BB2B_2" index="2" speed="70.00" length="144.78" shape="1031.25,357.06,-4.77 905.87,429.46,-4.77"/>
        <lane id="BB2B_3" index="3" speed="70.00" length="144.78" shape="1029.65,354.29,-4.77 904.27,426.68,-4.77"/>
        <lane id="BB2B_4" index="4" speed="70.00" length="144.78" shape="1028.05,351.52,-4.77 902.67,423.91,-4.77"/>
    </edge>
    <edge id="BC2B" from="BC" to="B" priority="-1">
        <lane id="BC2B_0" index="0" speed="70.00" length="144.78" shape="814.63,282.62,-4.77 887.02,408.01,-4.77"/>
        <lane id="BC2B_1" index="1" speed="70.00" length="144.78" shape="811.86,284.22,-4.77 884.25,409.61,-4.77"/>
        <lane id="BC2B_2" index="2" speed="70.00" length="144.78" shape="809.08,285.82,-4.77 881.47,411.21,-4.77"/>
        <lane id="BC2B_3" index="3" speed="70.00" length="144.78" shape="806.31,287.42,-4.77 878.70,412.81,-4.77"/>
        <lane id="BC2B_4" index="4" speed="70.00" length="144.78" shape="803.54,289.02,-4.77 875.93,414.41,-4.77"/>
    </edge>
    <edge id="C2CA" from="C" to="CA" priority="-1">
        <lane id="C2CA_0" index="0" speed="40.00" length="365.85" shape="414.02,312.83,-3.10 596.94,-4.00,-3.10"/>
        <lane id="C2CA_1" index="1" speed="40.00" length="365.85" shape="416.79,314.43,-3.10 599.71,-2.40,-3.10"/>
        <lane id="C2CA_2" index="2" speed="40.00" length="365.85" shape="419.56,316.03,-3.10 602.48,-0.80,-3.10"/>
    </edge>
    <edge id="C2CB" from="C" to="CB" priority="-1">
        <lane id="C2CB_0" index="0" speed="40.00" length="365.85" shape="401.78,327.82,-3.10 84.95,144.90,-3.10"/>
        <lane id="C2CB_1" index="1" speed="40.00" length="365.85" shape="403.38,325.05,-3.10 86.55,142.13,-3.10"/>
        <lane id="C2CB_2" index="2" speed="40.00" length="365.85" shape="404.98,322.28,-3.10 88.15,139.36,-3.10"/>
    </edge>
    <edge id="C2CC" from="C" to="CC" priority="-1">
        <lane id="C2CC_0" index="0" speed="40.00" length="365.85" shape="416.77,340.06,-3.10 233.85,656.89,-3.10"/>
        <lane id="C2CC_1" index="1" speed="40.00" length="365.85" shape="414.00,338.46,-3.10 231.08,655.29,-3.10"/>
        <lane id="C2CC_2" index="2" speed="40.00" length="365.85" shape="411.23,336.86,-3.10 228.31,653.69,-3.10"/>
    </edge>
    <edge id="C2TL" from="C" to="TL" priority="-1">
        <lane id="C2TL_0" index="0" speed="40.00" length="345.07" shape="429.01,325.07,-3.01 727.84,497.60,-0.17"/>
        <lane id="C2TL_1" index="1" speed="40.00" length="345.07" shape="427.41,327.84,-3.01 726.24,500.37,-0.17"/>
        <lane id="C2TL_2" index="2" speed="40.00" length="345.07" shape="425.81,330.61,-3.01 724.64,503.14,-0.17"/>
    </edge>
    <edge id="TL2A" from="TL" to="A" priority="-1">
        <lane id="TL2A_0" index="0" speed="50.00" length="717.71" shape="743.44,519.07,-0.04 743.44,1236.76,-6.60"/>
    </edge>
    <edge id="TL2B" from="TL" to="B" priority="-1">
        <lane id="TL2B_0" index="0" speed="70.00" length="140.70" shape="738.24,500.37,-0.12 860.03,430.06,-4.77"/>
        <lane id="TL2B_1" index="1" speed="70.00" length="140.70" shape="739.84,503.14,-0.12 861.63,432.83,-4.77"/>
        <lane id="TL2B_2" index="2" speed="70.00" length="140.70" shape="741.44,505.91,-0.12 863.23,435.60,-4.77"/>
        <lane id="TL2B_3" index="3" speed="70.00" length="140.70" shape="743.04,508.68,-0.12 864.83,438.37,-4.77"/>
        <lane id="TL2B_4" index="4" speed="70.00" length="140.70" shape="744.64,511.45,-0.12 866.43,441.14,-4.77"/>
    </edge>

    <tlLogic id="A" type="static" programID="0" offset="0">
        <phase duration="35" state="GGrrGGrr"/>
        <phase duration="10" state="yyrryyrr"/>
        <phase duration="35" state="rrGGrrGG"/>
        <phase duration="10" state="rryyrryy"/>
    </tlLogic>
    <tlLogic id="AA" type="static" programID="0" offset="0">
        <phase duration="75" state="G"/>
        <phase duration="10" state="y"/>
        <phase duration="5"  state="r"/>
    </tlLogic>
    <tlLogic id="AB" type="static" programID="0" offset="0">
        <phase duration="75" state="G"/>
        <phase duration="10" state="y"/>
        <phase duration="5"  state="r"/>
    </tlLogic>
    <tlLogic id="AC" type="static" programID="0" offset="0">
        <phase duration="75" state="G"/>
        <phase duration="10" state="y"/>
        <phase duration="5"  state="r"/>
    </tlLogic>
    <tlLogic id="B" type="static" programID="0" offset="0">
        <phase duration="32" state="rrrrrrrGggggGgrrrrrrrGggggGg"/>
        <phase duration="13" state="rrrrrrryyyyyyyrrrrrrryyyyyyy"/>
        <phase duration="32" state="GggggGgrrrrrrrGggggGgrrrrrrr"/>
        <phase duration="13" state="yyyyyyyrrrrrrryyyyyyyrrrrrrr"/>
    </tlLogic>
    <tlLogic id="BA" type="static" programID="0" offset="0">
        <phase duration="72" state="G"/>
        <phase duration="13" state="y"/>
        <phase duration="5"  state="r"/>
    </tlLogic>
    <tlLogic id="BB" type="static" programID="0" offset="0">
        <phase duration="72" state="G"/>
        <phase duration="13" state="y"/>
        <phase duration="5"  state="r"/>
    </tlLogic>
    <tlLogic id="BC" type="static" programID="0" offset="0">
        <phase duration="72" state="G"/>
        <phase duration="13" state="y"/>
        <phase duration="5"  state="r"/>
    </tlLogic>
    <tlLogic id="TL" type="static" programID="0" offset="0">
        <phase duration="32" state="rrrrrrGggG"/>
        <phase duration="13" state="rrrrrryyyy"/>
        <phase duration="32" state="GGGGGGrrrr"/>
        <phase duration="13" state="yyyyyyrrrr"/>
    </tlLogic>

    <junction id="A" type="traffic_light" x="741.84" y="1256.76" z="-6.78" incLanes="AB2A_0 AC2A_0 TL2A_0 AA2A_0" intLanes=":A_0_0 :A_1_0 :A_2_0 :A_3_0 :A_4_0 :A_5_0 :A_6_0 :A_7_0" shape="738.64,1276.76,-6.78 757.84,1276.76,-6.78 757.95,1271.63,-6.78 758.29,1267.43,-6.78 758.84,1264.16,-6.78 759.62,1261.83,-6.78 760.62,1260.43,-6.78 761.84,1259.96,-6.78 761.84,1240.76,-6.78 756.71,1240.65,-6.78 752.51,1240.32,-6.78 749.24,1239.76,-6.78 746.91,1238.98,-6.78 745.51,1237.98,-6.78 745.04,1236.76,-6.78 725.84,1236.76,-6.78 725.73,1241.89,-6.78 725.40,1246.09,-6.78 724.84,1249.36,-6.78 724.06,1251.69,-6.78 723.06,1253.09,-6.78 721.84,1253.56,-6.78 721.84,1272.76,-6.78 726.98,1272.87,-6.78 731.18,1273.20,-6.78 734.44,1273.76,-6.78 736.78,1274.54,-6.78 738.18,1275.54,-6.78">
        <request index="0" response="00000000" foes="00001000" cont="0"/>
        <request index="1" response="00000000" foes="11001000" cont="0"/>
        <request index="2" response="00100000" foes="00100000" cont="0"/>
        <request index="3" response="00100011" foes="00100011" cont="0"/>
        <request index="4" response="00000000" foes="10000000" cont="0"/>
        <request index="5" response="00000000" foes="10001100" cont="0"/>
        <request index="6" response="00000010" foes="00000010" cont="0"/>
        <request index="7" response="00110010" foes="00110010" cont="0"/>
    </junction>
    <junction id="AA" type="traffic_light" x="0.00" y="1256.76" z="-6.78" incLanes="A2AA_0 A2AA_1 A2AA_2 A2AA_3 A2AA_4" intLanes=":AA_0_0" shape="-0.00,1256.76,-6.78 -0.00,1272.76,-6.78 -0.00,1256.76,-6.78">
        <request index="0" response="0" foes="0" cont="0"/>
    </junction>
    <junction id="AB" type="traffic_light" x="741.84" y="1998.60" z="-6.78" incLanes="A2AB_0 A2AB_1 A2AB_2 A2AB_3 A2AB_4" intLanes=":AB_0_0" shape="741.84,1998.60,-6.78 757.84,1998.60,-6.78 741.84,1998.60,-6.78">
        <request index="0" response="0" foes="0" cont="0"/>
    </junction>
    <junction id="AC" type="traffic_light" x="1483.68" y="1256.76" z="-6.78" incLanes="A2AC_0 A2AC_1 A2AC_2 A2AC_3 A2AC_4" intLanes=":AC_0_0" shape="1483.68,1256.76,-6.78 1483.68,1240.76,-6.78 1483.68,1256.76,-6.78">
        <request index="0" response="0" foes="0" cont="0"/>
    </junction>
    <junction id="B" type="traffic_light" x="884.55" y="432.53" z="-4.77" incLanes="BA2B_0 BA2B_1 BA2B_2 BA2B_3 BA2B_4 BB2B_0 BB2B_1 BB2B_2 BB2B_3 BB2B_4 BC2B_0 BC2B_1 BC2B_2 BC2B_3 BC2B_4 TL2B_0 TL2B_1 TL2B_2 TL2B_3 TL2B_4" intLanes=":B_0_0 :B_1_0 :B_1_1 :B_1_2 :B_1_3 :B_1_4 :B_28_0 :B_7_0 :B_8_0 :B_8_1 :B_8_2 :B_8_3 :B_8_4 :B_29_0 :B_14_0 :B_15_0 :B_15_1 :B_15_2 :B_15_3 :B_15_4 :B_30_0 :B_21_0 :B_22_0 :B_22_1 :B_22_2 :B_22_3 :B_22_4 :B_31_0" shape="880.69,457.85,-4.77 897.32,448.25,-4.77 897.82,445.39,-4.77 899.46,443.55,-4.77 902.01,441.44,-4.77 905.48,439.05,-4.77 909.87,436.38,-4.77 900.27,419.76,-4.77 897.41,419.25,-4.77 895.57,417.62,-4.77 893.45,415.07,-4.77 891.07,411.60,-4.77 888.40,407.21,-4.77 871.78,416.81,-4.77 871.27,419.66,-4.77 869.64,421.50,-4.77 867.09,423.62,-4.77 863.62,426.01,-4.77 859.23,428.67,-4.77 868.83,445.30,-4.77 871.68,445.80,-4.77 873.52,447.44,-4.77 875.64,449.99,-4.77 878.03,453.46,-4.77">
        <request index="0"  response="0000000000000001111100000000" foes="0000000100000001111100000000" cont="0"/>
        <request index="1"  response="1111111000000011111100111100" foes="1111111100000011111100111100" cont="0"/>
        <request index="2"  response="1111111000000011111100111000" foes="1111111100000011111100111010" cont="0"/>
        <request index="3"  response="1111111000000011111100110000" foes="1111111100000011111100110110" cont="0"/>
        <request index="4"  response="1111111000000011111100100000" foes="1111111100000011111100101110" cont="0"/>
        <request index="5"  response="1111111000000011111100000000" foes="1111111100000011111100011110" cont="0"/>
        <request index="6"  response="1111110011111111111100000000" foes="1111110011111111111100000000" cont="1"/>
        <request index="7"  response="0000000000000000000000000000" foes="1000000011111000000000000000" cont="0"/>
        <request index="8"  response="0000000100000001111001000000" foes="1000000111111001111001111111" cont="0"/>
        <request index="9"  response="0000000100000001110001000000" foes="1000000111111001110101111111" cont="0"/>
        <request index="10" response="0000000100000001100001000000" foes="1000000111111001101101111111" cont="0"/>
        <request index="11" response="0000000100000001000001000000" foes="1000000111111001011101111111" cont="0"/>
        <request index="12" response="0000000100000000000001000000" foes="1000000111111000111101111111" cont="0"/>
        <request index="13" response="0111111100000000000001000000" foes="0111111111111000000001111110" cont="1"/>
        <request index="14" response="0111110000000000000000000000" foes="0111110000000000000001000000" cont="0"/>
        <request index="15" response="1111110011110011111110000000" foes="1111110011110011111111000000" cont="0"/>
        <request index="16" response="1111110011100011111110000000" foes="1111110011101011111111000000" cont="0"/>
        <request index="17" response="1111110011000011111110000000" foes="1111110011011011111111000000" cont="0"/>
        <request index="18" response="1111110010000011111110000000" foes="1111110010111011111111000000" cont="0"/>
        <request index="19" response="1111110000000011111110000000" foes="1111110001111011111111000000" cont="0"/>
        <request index="20" response="1111110000000011111100111111" foes="1111110000000011111100111111" cont="1"/>
        <request index="21" response="0000000000000000000000000000" foes="0000000000000010000000111110" cont="0"/>
        <request index="22" response="0111100100000000000001000000" foes="0111100111111110000001111110" cont="0"/>
        <request index="23" response="0111000100000000000001000000" foes="0111010111111110000001111110" cont="0"/>
        <request index="24" response="0110000100000000000001000000" foes="0110110111111110000001111110" cont="0"/>
        <request index="25" response="0100000100000000000001000000" foes="0101110111111110000001111110" cont="0"/>
        <request index="26" response="0000000100000000000001000000" foes="0011110111111110000001111110" cont="0"/>