<?xml version="1.0" encoding="UTF-8"?>

<!-- generated on 2022-10-11 16:45:08 by Eclipse SUMO netconvert Version 1.14.1
<configuration xmlns:xsi="http://www.w3.org/2001/XMLSchema-instance" xsi:noNamespaceSchemaLocation="http://sumo.dlr.de/xsd/netconvertConfiguration.xsd">

    <input>
        <node-files value="../data/salt-lake-city/nodes.nod.xml"/>
        <edge-files value="../data/salt-lake-city/edges.edg.xml"/>
        <connection-files value="../data/salt-lake-city/connections.con.xml"/>
    </input>

    <output>
        <output-file value="../data/salt-lake-city/sumo/net/44.net.xml"/>
    </output>

    <tls_building>
        <tls.minor-left.max-speed value="1"/>
    </tls_building>

    <report>
        <verbose value="true"/>
    </report>

</configuration>
-->

<net version="1.9" junctionCornerDetail="5" limitTurnSpeed="5.50" xmlns:xsi="http://www.w3.org/2001/XMLSchema-instance" xsi:noNamespaceSchemaLocation="http://sumo.dlr.de/xsd/net_file.xsd">

    <location netOffset="645.71,560.08" convBoundary="0.00,0.00,1380.95,1665.28" origBoundary="-645.71,-560.08,735.24,1105.19" projParameter="!"/>

    <edge id=":A_0" function="internal">
        <lane id=":A_0_0" index="0" speed="6.51" length="9.03" shape="644.11,1119.88 643.76,1117.43 642.71,1115.68 640.96,1114.63 638.51,1114.28"/>
    </edge>
    <edge id=":A_1" function="internal">
        <lane id=":A_1_0" index="0" speed="40.00" length="14.40" shape="644.11,1119.88 644.11,1105.48"/>
    </edge>
    <edge id=":A_2" function="internal">
        <lane id=":A_2_0" index="0" speed="6.51" length="9.03" shape="652.91,1114.28 650.46,1114.63 648.71,1115.68 647.66,1117.43 647.31,1119.88"/>
    </edge>
    <edge id=":A_3" function="internal">
        <lane id=":A_3_0" index="0" speed="40.00" length="14.40" shape="652.91,1114.28 638.51,1114.28"/>
    </edge>
    <edge id=":A_4" function="internal">
        <lane id=":A_4_0" index="0" speed="6.51" length="9.03" shape="647.31,1105.48 647.66,1107.93 648.71,1109.68 650.46,1110.73 652.91,1111.08"/>
    </edge>
    <edge id=":A_5" function="internal">
        <lane id=":A_5_0" index="0" speed="40.00" length="14.40" shape="647.31,1105.48 647.31,1119.88"/>
    </edge>
    <edge id=":A_6" function="internal">
        <lane id=":A_6_0" index="0" speed="6.51" length="9.03" shape="638.51,1111.08 640.96,1110.73 642.71,1109.68 643.76,1107.93 644.11,1105.48"/>
    </edge>
    <edge id=":A_7" function="internal">
        <lane id=":A_7_0" index="0" speed="40.00" length="14.40" shape="638.51,1111.08 652.91,1111.08"/>
    </edge>
    <edge id=":AA_0" function="internal">
        <lane id=":AA_0_0" index="0" speed="3.65" length="4.67" shape="93.12,1114.28 91.92,1113.48 91.52,1112.68 91.92,1111.88 93.12,1111.08"/>
    </edge>
    <edge id=":AB_0" function="internal">
        <lane id=":AB_0_0" index="0" speed="3.65" length="4.67" shape="647.31,1665.28 646.51,1666.48 645.71,1666.88 644.91,1666.48 644.11,1665.28"/>
    </edge>
    <edge id=":AC_0" function="internal">
        <lane id=":AC_0_0" index="0" speed="3.65" length="4.67" shape="1198.31,1111.08 1199.51,1111.88 1199.91,1112.68 1199.51,1113.48 1198.31,1114.28"/>
    </edge>
    <edge id=":B_0" function="internal">
        <lane id=":B_0_0" index="0" speed="8.10" length="14.57" shape="1008.53,576.88 1007.78,574.43 1005.53,572.68 1001.78,571.63 996.53,571.28"/>
    </edge>
    <edge id=":B_1" function="internal">
        <lane id=":B_1_0" index="0" speed="40.00" length="34.33" shape="1008.53,576.88 1007.53,569.82 1005.33,562.74 1003.13,554.34 1002.13,543.28"/>
        <lane id=":B_1_1" index="1" speed="40.00" length="34.33" shape="1011.73,576.88 1010.73,569.82 1008.53,562.74 1006.33,554.34 1005.33,543.28"/>
    </edge>
    <edge id=":B_3" function="internal">
        <lane id=":B_3_0" index="0" speed="11.36" length="15.40" shape="1011.73,576.88 1012.88,568.83 1016.33,563.08 1016.82,562.79"/>
    </edge>
    <edge id=":B_16" function="internal">
        <lane id=":B_16_0" index="0" speed="11.36" length="14.27" shape="1016.82,562.79 1022.08,559.63 1030.13,558.48"/>
    </edge>
    <edge id=":B_4" function="internal">
        <lane id=":B_4_0" index="0" speed="8.10" length="14.57" shape="1030.13,564.88 1027.68,565.63 1025.93,567.88 1024.88,571.63 1024.53,576.88"/>
    </edge>
    <edge id=":B_5" function="internal">
        <lane id=":B_5_0" index="0" speed="40.00" length="34.33" shape="1030.13,564.88 1023.07,565.88 1016.00,568.08 1007.59,570.28 996.53,571.28"/>
        <lane id=":B_5_1" index="1" speed="40.00" length="34.33" shape="1030.13,561.68 1023.07,562.68 1016.00,564.88 1007.59,567.08 996.53,568.08"/>
    </edge>
    <edge id=":B_7" function="internal">
        <lane id=":B_7_0" index="0" speed="11.36" length="15.40" shape="1030.13,561.68 1022.08,560.53 1016.33,557.08 1016.04,556.60"/>
    </edge>
    <edge id=":B_17" function="internal">
        <lane id=":B_17_0" index="0" speed="11.36" length="14.27" shape="1016.04,556.60 1012.88,551.33 1011.73,543.28"/>
    </edge>
    <edge id=":B_8" function="internal">
        <lane id=":B_8_0" index="0" speed="8.10" length="14.57" shape="1018.13,543.28 1018.88,545.73 1021.13,547.48 1024.88,548.53 1030.13,548.88"/>
    </edge>
    <edge id=":B_9" function="internal">
        <lane id=":B_9_0" index="0" speed="40.00" length="34.33" shape="1018.13,543.28 1019.13,550.34 1021.33,557.42 1023.53,565.82 1024.53,576.88"/>
        <lane id=":B_9_1" index="1" speed="40.00" length="34.33" shape="1014.93,543.28 1015.93,550.34 1018.13,557.42 1020.33,565.82 1021.33,576.88"/>
    </edge>
    <edge id=":B_11" function="internal">
        <lane id=":B_11_0" index="0" speed="11.36" length="15.40" shape="1014.93,543.28 1013.78,551.33 1010.33,557.08 1009.85,557.37"/>
    </edge>
    <edge id=":B_18" function="internal">
        <lane id=":B_18_0" index="0" speed="11.36" length="14.27" shape="1009.85,557.37 1004.58,560.53 996.53,561.68"/>
    </edge>
    <edge id=":B_12" function="internal">
        <lane id=":B_12_0" index="0" speed="8.10" length="14.57" shape="996.53,555.28 998.98,554.53 1000.73,552.28 1001.78,548.53 1002.13,543.28"/>
    </edge>
    <edge id=":B_13" function="internal">
        <lane id=":B_13_0" index="0" speed="40.00" length="34.33" shape="996.53,555.28 1003.60,554.28 1010.67,552.08 1019.07,549.88 1030.13,548.88"/>
        <lane id=":B_13_1" index="1" speed="40.00" length="34.33" shape="996.53,558.48 1003.60,557.48 1010.67,555.28 1019.07,553.08 1030.13,552.08"/>
    </edge>
    <edge id=":B_15" function="internal">
        <lane id=":B_15_0" index="0" speed="11.36" length="15.40" shape="996.53,558.48 1004.58,559.63 1010.33,563.08 1010.62,563.56"/>
    </edge>
    <edge id=":B_19" function="internal">
        <lane id=":B_19_0" index="0" speed="11.36" length="14.27" shape="1010.62,563.56 1013.78,568.83 1014.93,576.88"/>
    </edge>
    <edge id=":BA_0" function="internal">
        <lane id=":BA_0_0" index="0" speed="3.65" length="4.67" shape="1014.93,927.70 1014.13,928.90 1013.33,929.30 1012.53,928.90 1011.73,927.70"/>
    </edge>
    <edge id=":BB_0" function="internal">
        <lane id=":BB_0_0" index="0" speed="3.65" length="4.67" shape="1380.95,558.48 1382.15,559.28 1382.55,560.08 1382.15,560.88 1380.95,561.68"/>
    </edge>
    <edge id=":BC_0" function="internal">
        <lane id=":BC_0_0" index="0" speed="3.65" length="4.67" shape="1011.73,192.46 1012.53,191.26 1013.33,190.86 1014.13,191.26 1014.93,192.46"/>
    </edge>
    <edge id=":C_0" function="internal">
        <lane id=":C_0_0" index="0" speed="6.51" length="9.03" shape="644.11,287.24 643.76,284.79 642.71,283.04 640.96,281.99 638.51,281.64"/>
    </edge>
    <edge id=":C_1" function="internal">
        <lane id=":C_1_0" index="0" speed="40.00" length="14.40" shape="644.11,287.24 644.11,272.84"/>
    </edge>
    <edge id=":C_2" function="internal">
        <lane id=":C_2_0" index="0" speed="6.51" length="9.03" shape="652.91,281.64 650.46,281.99 648.71,283.04 647.66,284.79 647.31,287.24"/>
    </edge>
    <edge id=":C_3" function="internal">
        <lane id=":C_3_0" index="0" speed="40.00" length="14.40" shape="652.91,281.64 638.51,281.64"/>
    </edge>
    <edge id=":C_4" function="internal">
        <lane id=":C_4_0" index="0" speed="6.51" length="9.03" shape="647.31,272.84 647.66,275.29 648.71,277.04 650.46,278.09 652.91,278.44"/>
    </edge>
    <edge id=":C_5" function="internal">
        <lane id=":C_5_0" index="0" speed="40.00" length="14.40" shape="647.31,272.84 647.31,287.24"/>
    </edge>
    <edge id=":C_6" function="internal">
        <lane id=":C_6_0" index="0" speed="6.51" length="9.03" shape="638.51,278.44 640.96,278.09 642.71,277.04 643.76,275.29 644.11,272.84"/>
    </edge>
    <edge id=":C_7" function="internal">
        <lane id=":C_7_0" index="0" speed="40.00" length="14.40" shape="638.51,278.44 652.91,278.44"/>
    </edge>
    <edge id=":CA_0" function="internal">
        <lane id=":CA_0_0" index="0" speed="3.65" length="4.67" shape="925.75,278.44 926.95,279.24 927.35,280.04 926.95,280.84 925.75,281.64"/>
    </edge>
    <edge id=":CB_0" function="internal">
        <lane id=":CB_0_0" index="0" speed="3.65" length="4.67" shape="644.11,0.00 644.91,-1.20 645.71,-1.60 646.51,-1.20 647.31,0.00"/>
    </edge>
    <edge id=":CC_0" function="internal">
        <lane id=":CC_0_0" index="0" speed="3.65" length="4.67" shape="365.67,281.64 364.47,280.84 364.07,280.04 364.47,279.24 365.67,278.44"/>
    </edge>
    <edge id=":D_0" function="internal">
        <lane id=":D_0_0" index="0" speed="6.51" length="9.03" shape="318.06,570.48 317.71,568.03 316.66,566.28 314.91,565.23 312.46,564.88"/>
    </edge>
    <edge id=":D_1" function="internal">
        <lane id=":D_1_0" index="0" speed="40.00" length="20.80" shape="318.06,570.48 318.06,549.68"/>
        <lane id=":D_1_1" index="1" speed="40.00" length="20.80" shape="321.26,570.48 321.26,549.68"/>
    </edge>
    <edge id=":D_3" function="internal">
        <lane id=":D_3_0" index="0" speed="9.26" length="5.01" shape="321.26,570.48 321.97,565.52"/>
    </edge>
    <edge id=":D_16" function="internal">
        <lane id=":D_16_0" index="0" speed="9.26" length="14.34" shape="321.97,565.52 322.01,565.23 324.26,561.48 328.01,559.23 333.26,558.48"/>
    </edge>
    <edge id=":D_4" function="internal">
        <lane id=":D_4_0" index="0" speed="6.51" length="9.03" shape="333.26,564.88 330.81,565.23 329.06,566.28 328.01,568.03 327.66,570.48"/>
    </edge>
    <edge id=":D_5" function="internal">
        <lane id=":D_5_0" index="0" speed="40.00" length="20.80" shape="333.26,564.88 312.46,564.88"/>
        <lane id=":D_5_1" index="1" speed="40.00" length="20.80" shape="333.26,561.68 312.46,561.68"/>
    </edge>
    <edge id=":D_7" function="internal">
        <lane id=":D_7_0" index="0" speed="9.26" length="5.01" shape="333.26,561.68 328.29,560.97"/>
    </edge>
    <edge id=":D_17" function="internal">
        <lane id=":D_17_0" index="0" speed="9.26" length="14.34" shape="328.29,560.97 328.01,560.93 324.26,558.68 322.01,554.93 321.26,549.68"/>
    </edge>
    <edge id=":D_8" function="internal">
        <lane id=":D_8_0" index="0" speed="6.51" length="9.03" shape="327.66,549.68 328.01,552.13 329.06,553.88 330.81,554.93 333.26,555.28"/>
    </edge>
    <edge id=":D_9" function="internal">
        <lane id=":D_9_0" index="0" speed="40.00" length="20.80" shape="327.66,549.68 327.66,570.48"/>
        <lane id=":D_9_1" index="1" speed="40.00" length="20.80" shape="324.46,549.68 324.46,570.48"/>
    </edge>
    <edge id=":D_11" function="internal">
        <lane id=":D_11_0" index="0" speed="9.26" length="5.01" shape="324.46,549.68 323.75,554.64"/>
    </edge>
    <edge id=":D_18" function="internal">
        <lane id=":D_18_0" index="0" speed="9.26" length="14.34" shape="323.75,554.64 323.71,554.93 321.46,558.68 317.71,560.93 312.46,561.68"/>
    </edge>
    <edge id=":D_12" function="internal">
        <lane id=":D_12_0" index="0" speed="6.51" length="9.03" shape="312.46,555.28 314.91,554.93 316.66,553.88 317.71,552.13 318.06,549.68"/>
    </edge>
    <edge id=":D_13" function="internal">
        <lane id=":D_13_0" index="0" speed="40.00" length="20.80" shape="312.46,555.28 333.26,555.28"/>
        <lane id=":D_13_1" index="1" speed="40.00" length="20.80" shape="312.46,558.48 333.26,558.48"/>
    </edge>
    <edge id=":D_15" function="internal">
        <lane id=":D_15_0" index="0" speed="9.26" length="5.01" shape="312.46,558.48 317.42,559.19"/>
    </edge>
    <edge id=":D_19" function="internal">
        <lane id=":D_19_0" index="0" speed="9.26" length="14.34" shape="317.42,559.19 317.71,559.23 321.46,561.48 323.71,565.23 324.46,570.48"/>
    </edge>
    <edge id=":DA_0" function="internal">
        <lane id=":DA_0_0" index="0" speed="3.65" length="4.67" shape="321.26,237.22 322.06,236.02 322.86,235.62 323.66,236.02 324.46,237.22"/>
    </edge>
    <edge id=":DB_0" function="internal">
        <lane id=":DB_0_0" index="0" speed="3.65" length="4.67" shape="-0.00,561.68 -1.20,560.88 -1.60,560.08 -1.20,559.28 0.00,558.48"/>
    </edge>
    <edge id=":DC_0" function="internal">
        <lane id=":DC_0_0" index="0" speed="3.65" length="4.67" shape="324.46,882.94 323.66,884.14 322.86,884.54 322.06,884.14 321.26,882.94"/>
    </edge>
    <edge id=":TL_0" function="internal">
        <lane id=":TL_0_0" index="0" speed="8.10" length="14.57" shape="644.11,576.88 643.76,571.63 642.71,567.88 640.96,565.63 638.51,564.88"/>
    </edge>
    <edge id=":TL_1" function="internal">
        <lane id=":TL_1_0" index="0" speed="40.00" length="27.20" shape="644.11,576.88 644.11,549.68"/>
    </edge>
    <edge id=":TL_2" function="internal">
        <lane id=":TL_2_0" index="0" speed="6.51" length="9.03" shape="652.91,571.28 650.46,571.63 648.71,572.68 647.66,574.43 647.31,576.88"/>
    </edge>
    <edge id=":TL_3" function="internal">
        <lane id=":TL_3_0" index="0" speed="40.00" length="16.17" shape="652.91,571.28 648.45,570.28 645.71,568.08 642.98,565.88 638.51,564.88"/>
    </edge>
    <edge id=":TL_4" function="internal">
        <lane id=":TL_4_0" index="0" speed="7.33" length="1.66" shape="652.91,568.08 651.29,568.44"/>
    </edge>
    <edge id=":TL_5" function="internal">
        <lane id=":TL_5_0" index="0" speed="40.00" length="14.86" shape="652.91,564.88 648.59,564.38 645.71,563.28 642.84,562.18 638.51,561.68"/>
    </edge>
    <edge id=":TL_6" function="internal">
        <lane id=":TL_6_0" index="0" speed="8.67" length="3.71" shape="652.91,561.68 649.27,560.97"/>
    </edge>
    <edge id=":TL_13" function="internal">
        <lane id=":TL_13_0" index="0" speed="7.33" length="10.07" shape="651.29,568.44 650.46,568.63 648.71,570.28 647.66,573.03 647.31,576.88"/>
    </edge>
    <edge id=":TL_14" function="internal">
        <lane id=":TL_14_0" index="0" speed="8.67" length="13.14" shape="649.27,560.97 649.06,560.93 646.31,558.68 644.66,554.93 644.11,549.68"/>
    </edge>
    <edge id=":TL_7" function="internal">
        <lane id=":TL_7_0" index="0" speed="6.51" length="9.03" shape="647.31,549.68 647.66,552.13 648.71,553.88 650.46,554.93 652.91,555.28"/>
    </edge>
    <edge id=":TL_8" function="internal">
        <lane id=":TL_8_0" index="0" speed="40.00" length="27.20" shape="647.31,549.68 647.31,576.88"/>
    </edge>
    <edge id=":TL_9" function="internal">
        <lane id=":TL_9_0" index="0" speed="6.51" length="9.03" shape="638.51,555.28 640.96,554.93 642.71,553.88 643.76,552.13 644.11,549.68"/>
    </edge>
    <edge id=":TL_10" function="internal">
        <lane id=":TL_10_0" index="0" speed="40.00" length="14.40" shape="638.51,555.28 652.91,555.28"/>
        <lane id=":TL_10_1" index="1" speed="40.00" length="14.40" shape="638.51,558.48 652.91,558.48"/>
    </edge>
    <edge id=":TL_12" function="internal">
        <lane id=":TL_12_0" index="0" speed="9.94" length="3.79" shape="638.51,558.48 642.15,559.57"/>
    </edge>
    <edge id=":TL_15" function="internal">
        <lane id=":TL_15_0" index="0" speed="9.94" length="18.69" shape="642.15,559.57 642.36,559.63 645.11,563.08 646.76,568.83 647.31,576.88"/>
    </edge>

    <edge id="A2AA" from="A" to="AA" priority="-1">
        <lane id="A2AA_0" index="0" speed="40.00" length="545.40" shape="638.51,1114.28 93.12,1114.28"/>
    </edge>
    <edge id="A2AB" from="A" to="AB" priority="-1">
        <lane id="A2AB_0" index="0" speed="40.00" length="545.40" shape="647.31,1119.88 647.31,1665.28"/>
    </edge>
    <edge id="A2AC" from="A" to="AC" priority="-1">
        <lane id="A2AC_0" index="0" speed="40.00" length="545.40" shape="652.91,1111.08 1198.31,1111.08"/>
    </edge>
    <edge id="A2TL" from="A" to="TL" priority="-1">
        <lane id="A2TL_0" index="0" speed="40.00" length="528.60" shape="644.11,1105.48 644.11,576.88"/>
    </edge>
    <edge id="AA2A" from="AA" to="A" priority="-1">
        <lane id="AA2A_0" index="0" speed="40.00" length="545.40" shape="93.12,1111.08 638.51,1111.08"/>
    </edge>
    <edge id="AB2A" from="AB" to="A" priority="-1">
        <lane id="AB2A_0" index="0" speed="40.00" length="545.40" shape="644.11,1665.28 644.11,1119.88"/>
    </edge>
    <edge id="AC2A" from="AC" to="A" priority="-1">
        <lane id="AC2A_0" index="0" speed="40.00" length="545.40" shape="1198.31,1114.28 652.91,1114.28"/>
    </edge>
    <edge id="B2BA" from="B" to="BA" priority="-1">
        <lane id="B2BA_0" index="0" speed="40.00" length="350.82" shape="1024.53,576.88 1024.53,927.70"/>
        <lane id="B2BA_1" index="1" speed="40.00" length="350.82" shape="1021.33,576.88 1021.33,927.70"/>
        <lane id="B2BA_2" index="2" speed="40.00" length="350.82" shape="1018.13,576.88 1018.13,927.70"/>
        <lane id="B2BA_3" index="3" speed="40.00" length="350.82" shape="1014.93,576.88 1014.93,927.70"/>
    </edge>
    <edge id="B2BB" from="B" to="BB" priority="-1">
        <lane id="B2BB_0" index="0" speed="40.00" length="350.82" shape="1030.13,548.88 1380.95,548.88"/>
        <lane id="B2BB_1" index="1" speed="40.00" length="350.82" shape="1030.13,552.08 1380.95,552.08"/>
        <lane id="B2BB_2" index="2" speed="40.00" length="350.82" shape="1030.13,555.28 1380.95,555.28"/>
        <lane id="B2BB_3" index="3" speed="40.00" length="350.82" shape="1030.13,558.48 1380.95,558.48"/>
    </edge>
    <edge id="B2BC" from="B" to="BC" priority="-1">
        <lane id="B2BC_0" index="0" speed="40.00" length="350.82" shape="1002.13,543.28 1002.13,192.46"/>
        <lane id="B2BC_1" index="1" speed="40.00" length="350.82" shape="1005.33,543.28 1005.33,192.46"/>
        <lane id="B2BC_2" index="2" speed="40.00" length="350.82" shape="1008.53,543.28 1008.53,192.46"/>
        <lane id="B2BC_3" index="3" speed="40.00" length="350.82" shape="1011.73,543.28 1011.73,192.46"/>
    </edge>
    <edge id="B2TL" from="B" to="TL" priority="-1">
        <lane id="B2TL_0" index="0" speed="40.00" length="343.62" shape="996.53,571.28 652.91,571.28"/>
        <lane id="B2TL_1" index="1" speed="40.00" length="343.62" shape="996.53,568.08 652.91,568.08"/>
        <lane id="B2TL_2" index="2" speed="40.00" length="343.62" shape="996.53,564.88 652.91,564.88"/>
        <lane id="B2TL_3" index="3" speed="40.00" length="343.62" shape="996.53,561.68 652.91,561.68"/>
    </edge>
    <edge id="BA2B" from="BA" to="B" priority="-1">
        <lane id="BA2B_0" index="0" speed="40.00" length="350.82" shape="1008.53,927.70 1008.53,576.88"/>
        <lane id="BA2B_1" index="1" speed="40.00" length="350.82" shape="1011.73,927.70 1011.73,576.88"/>
    </edge>
    <edge id="BB2B" from="BB" to="B" priority="-1">
        <lane id="BB2B_0" index="0" speed="40.00" length="350.82" shape="1380.95,564.88 1030.13,564.88"/>
        <lane id="BB2B_1" index="1" speed="40.00" length="350.82" shape="1380.95,561.68 1030.13,561.68"/>
    </edge>
    <edge id="BC2B" from="BC" to="B" priority="-1">
        <lane id="BC2B_0" index="0" speed="40.00" length="350.82" shape="1018.13,192.46 1018.13,543.28"/>
        <lane id="BC2B_1" index="1" speed="40.00" length="350.82" shape="1014.93,192.46 1014.93,543.28"/>
    </edge>
    <edge id="C2CA" from="C" to="CA" priority="-1">
        <lane id="C2CA_0" index="0" speed="40.00" length="272.84" shape="652.91,278.44 925.75,278.44"/>
    </edge>
    <edge id="C2CB" from="C" to="CB" priority="-1">
        <lane id="C2CB_0" index="0" speed="40.00" length="272.84" shape="644.11,272.84 644.11,0.00"/>
    </edge>
    <edge id="C2CC" from="C" to="CC" priority="-1">
        <lane id="C2CC_0" index="0" speed="40.00" length="272.84" shape="638.51,281.64 365.67,281.64"/>
    </edge>
    <edge id="C2TL" from="C" to="TL" priority="-1">
        <lane id="C2TL_0" index="0" speed="40.00" length="262.44" shape="647.31,287.24 647.31,549.68"/>
    </edge>
    <edge id="CA2C" from="CA" to="C" priority="-1">
        <lane id="CA2C_0" index="0" speed="40.00" length="272.84" shape="925.75,281.64 652.91,281.64"/>
    </edge>
    <edge id="CB2C" from="CB" to="C" priority="-1">
        <lane id="CB2C_0" index="0" speed="40.00" length="272.84" shape="647.31,0.00 647.31,272.84"/>
    </edge>
    <edge id="CC2C" from="CC" to="C" priority="-1">
        <lane id="CC2C_0" index="0" speed="40.00" length="272.84" shape="365.67,278.44 638.51,278.44"/>
    </edge>
    <edge id="D2DA" from="D" to="DA" priority="-1">
        <lane id="D2DA_0" index="0" speed="40.00" length="312.46" shape="318.06,549.68 318.06,237.22"/>
        <lane id="D2DA_1" index="1" speed="40.00" length="312.46" shape="321.26,549.68 321.26,237.22"/>
    </edge>
    <edge id="D2DB" from="D" to="DB" priority="-1">
        <lane id="D2DB_0" index="0" speed="40.00" length="312.46" shape="312.46,564.88 -0.00,564.88"/>
        <lane id="D2DB_1" index="1" speed="40.00" length="312.46" shape="312.46,561.68 -0.00,561.68"/>
    </edge>
    <edge id="D2DC" from="D" to="DC" priority="-1">
        <lane id="D2DC_0" index="0" speed="40.00" length="312.46" shape="327.66,570.48 327.66,882.94"/>
        <lane id="D2DC_1" index="1" speed="40.00" length="312.46" shape="324.46,570.48 324.46,882.94"/>
    </edge>
    <edge id="D2TL" from="D" to="TL" priority="-1">
        <lane id="D2TL_0" index="0" speed="40.00" length="305.26" shape="333.26,555.28 638.51,555.28"/>
        <lane id="D2TL_1" index="1" speed="40.00" length="305.26" shape="333.26,558.48 638.51,558.48"/>
    </edge>
    <edge id="DA2D" from="DA" to="D" priority="-1">
        <lane id="DA2D_0" index="0" speed="40.00" length="312.46" shape="327.66,237.22 327.66,549.68"/>
        <lane id="DA2D_1" index="1" speed="40.00" length="312.46" shape="324.46,237.22 324.46,549.68"/>
    </edge>
    <edge id="DB2D" from="DB" to="D" priority="-1">
        <lane id="DB2D_0" index="0" speed="40.00" length="312.46" shape="0.00,555.28 312.46,555.28"/>
        <lane id="DB2D_1" index="1" speed="40.00" length="312.46" shape="0.00,558.48 312.46,558.48"/>
    </edge>
    <edge id="DC2D" from="DC" to="D" priority="-1">
        <lane id="DC2D_0" index="0" speed="40.00" length="312.46" shape="318.06,882.94 318.06,570.48"/>
        <lane id="DC2D_1" index="1" speed="40.00" length="312.46" shape="321.26,882.94 321.26,570.48"/>
    </edge>
    <edge id="TL2A" from="TL" to="A" priority="-1">
        <lane id="TL2A_0" index="0" speed="40.00" length="528.60" shape="647.31,576.88 647.31,1105.48"/>
    </edge>
    <edge id="TL2B" from="TL" to="B" priority="-1">
        <lane id="TL2B_0" index="0" speed="40.00" length="343.62" shape="652.91,555.28 996.53,555.28"/>
        <lane id="TL2B_1" index="1" speed="40.00" length="343.62" shape="652.91,558.48 996.53,558.48"/>
    </edge>
    <edge id="TL2C" from="TL" to="C" priority="-1">
        <lane id="TL2C_0" index="0" speed="40.00" length="262.44" shape="644.11,549.68 644.11,287.24"/>
    </edge>
    <edge id="TL2D" from="TL" to="D" priority="-1">
        <lane id="TL2D_0" index="0" speed="40.00" length="305.26" shape="638.51,564.88 333.26,564.88"/>
        <lane id="TL2D_1" index="1" speed="40.00" length="305.26" shape="638.51,561.68 333.26,561.68"/>
    </edge>

    <tlLogic id="A" type="static" programID="0" offset="0">
        <phase duration="37" state="GGrrGGrr"/>
        <phase duration="8"  state="yyrryyrr"/>
        <phase duration="37" state="rrGGrrGG"/>
        <phase duration="8"  state="rryyrryy"/>
    </tlLogic>
    <tlLogic id="AA" type="static" programID="0" offset="0">
        <phase duration="77" state="G"/>
        <phase duration="8"  state="y"/>
        <phase duration="5"  state="r"/>
    </tlLogic>
    <tlLogic id="AB" type="static" programID="0" offset="0">
        <phase duration="77" state="G"/>
        <phase duration="8"  state="y"/>
        <phase duration="5"  state="r"/>
    </tlLogic>
    <tlLogic id="AC" type="static" programID="0" offset="0">
        <phase duration="77" state="G"/>
        <phase duration="8"  state="y"/>
        <phase duration="5"  state="r"/>
    </tlLogic>
    <tlLogic id="B" type="static" programID="0" offset="0">
        <phase duration="37" state="GGGgrrrrGGGgrrrr"/>
        <phase duration="8"  state="yyyyrrrryyyyrrrr"/>
        <phase duration="37" state="rrrrGGGgrrrrGGGg"/>
        <phase duration="8"  state="rrrryyyyrrrryyyy"/>
    </tlLogic>
    <tlLogic id="BA" type="static" programID="0" offset="0">
        <phase duration="77" state="G"/>
        <phase duration="8"  state="y"/>
        <phase duration="5"  state="r"/>
    </tlLogic>
    <tlLogic id="BB" type="static" programID="0" offset="0">
        <phase duration="77" state="G"/>
        <phase duration="8"  state="y"/>
        <phase duration="5"  state="r"/>
    </tlLogic>
    <tlLogic id="BC" type="static" programID="0" offset="0">
        <phase duration="77" state="G"/>
        <phase duration="8"  state="y"/>
        <phase duration="5"  state="r"/>
    </tlLogic>
    <tlLogic id="C" type="static" programID="0" offset="0">
        <phase duration="37" state="GGrrGGrr"/>
        <phase duration="8"  state="yyrryyrr"/>
        <phase duration="37" state="rrGGrrGG"/>
        <phase duration="8"  state="rryyrryy"/>
    </tlLogic>
    <tlLogic id="CA" type="static" programID="0" offset="0">
        <phase duration="77" state="G"/>
        <phase duration="8"  state="y"/>
        <phase duration="5"  state="r"/>
    </tlLogic>
    <tlLogic id="CB" type="static" programID="0" offset="0">
        <phase duration="77" state="G"/>
        <phase duration="8"  state="y"/>
        <phase duration="5"  state="r"/>
    </tlLogic>
    <tlLogic id="CC" type="static" programID="0" offset="0">
        <phase duration="77" state="G"/>
        <phase duration="8"  state="y"/>
        <phase duration="5"  state="r"/>
    </tlLogic>
    <tlLogic id="D" type="static" programID="0" offset="0">
        <phase duration="37" state="GGGgrrrrGGGgrrrr"/>
        <phase duration="8"  state="yyyyrrrryyyyrrrr"/>
        <phase duration="37" state="rrrrGGGgrrrrGGGg"/>
        <phase duration="8"  state="rrrryyyyrrrryyyy"/>
    </tlLogic>
    <tlLogic id="DA" type="static" programID="0" offset="0">
        <phase duration="77" state="G"/>
        <phase duration="8"  state="y"/>
        <phase duration="5"  state="r"/>
    </tlLogic>
    <tlLogic id="DB" type="static" programID="0" offset="0">
        <phase duration="77" state="G"/>
        <phase duration="8"  state="y"/>
        <phase duration="5"  state="r"/>
    </tlLogic>
    <tlLogic id="DC" type="static" programID="0" offset="0">
        <phase duration="77" state="G"/>
        <phase duration="8"  state="y"/>
        <phase duration="5"  state="r"/>
    </tlLogic>
    <tlLogic id="TL" type="static" programID="0" offset="0">
        <phase duration="30" state="srGGgGrsrGGGr"/>
        <phase duration="8"  state="sryyyyrsryyyr"/>
        <phase duration="6"  state="srrrrrGsrrrrG"/>
        <phase duration="8"  state="srrrrrysrrrry"/>
        <phase duration="30" state="GGsrsrrGGsrrr"/>
        <phase duration="8"  state="yysrsrryysrrr"/>
    </tlLogic>

    <junction id="A" type="traffic_light" x="645.71" y="1112.68" incLanes="AB2A_0 AC2A_0 TL2A_0 AA2A_0" intLanes=":A_0_0 :A_1_0 :A_2_0 :A_3_0 :A_4_0 :A_5_0 :A_6_0 :A_7_0" shape="642.51,1119.88 648.91,1119.88 649.36,1117.66 649.91,1116.88 650.69,1116.32 651.69,1115.99 652.91,1115.88 652.91,1109.48 650.69,1109.03 649.91,1108.48 649.36,1107.70 649.03,1106.70 648.91,1105.48 642.51,1105.48 642.07,1107.70 641.51,1108.48 640.74,1109.03 639.74,1109.37 638.51,1109.48 638.51,1115.88 640.74,1116.32 641.51,1116.88 642.07,1117.66 642.40,1118.66">
        <request index="0" response="00000000" foes="00001000" cont="0"/>
        <request index="1" response="00000000" foes="11001000" cont="0"/>
        <request index="2" response="00100000" foes="00100000" cont="0"/>
        <request index="3" response="00100011" foes="00100011" cont="0"/>
        <request index="4" response="00000000" foes="10000000" cont="0"/>
        <request index="5" response="00000000" foes="10001100" cont="0"/>
        <request index="6" response="00000010" foes="00000010" cont="0"/>
        <request index="7" response="00110010" foes="00110010" cont="0"/>
    </junction>
    <junction id="AA" type="traffic_light" x="93.12" y="1112.68" incLanes="A2AA_0" intLanes=":AA_0_0" shape="93.12,1112.68 93.12,1115.88 93.12,1112.68">
        <request index="0" response="0" foes="0" cont="0"/>
    </junction>
    <junction id="AB" type="traffic_light" x="645.71" y="1665.28" incLanes="A2AB_0" intLanes=":AB_0_0" shape="645.71,1665.28 648.91,1665.28 645.71,1665.28">
        <request index="0" response="0" foes="0" cont="0"/>
    </junction>
    <junction id="AC" type="traffic_light" x="1198.31" y="1112.68" incLanes="A2AC_0" intLanes=":AC_0_0" shape="1198.31,1112.68 1198.31,1109.48 1198.31,1112.68">
        <request index="0" response="0" foes="0" cont="0"/>
    </junction>