<?xml version="1.0" encoding="UTF-8"?>

<!-- generated on 2022-10-11 17:10:52 by Eclipse SUMO netconvert Version 1.14.1
<configuration xmlns:xsi="http://www.w3.org/2001/XMLSchema-instance" xsi:noNamespaceSchemaLocation="http://sumo.dlr.de/xsd/netconvertConfiguration.xsd">

    <input>
        <node-files value="../data/salt-lake-city/nodes.nod.xml"/>
        <edge-files value="../data/salt-lake-city/edges.edg.xml"/>
        <connection-files value="../data/salt-lake-city/connections.con.xml"/>
    </input>

    <output>
        <output-file value="../data/salt-lake-city/sumo/net/48.net.xml"/>
    </output>

    <tls_building>
        <tls.minor-left.max-speed value="1"/>
    </tls_building>

    <report>
        <verbose value="true"/>
    </report>

</configuration>
-->

<net version="1.9" junctionCornerDetail="5" limitTurnSpeed="5.50" xmlns:xsi="http://www.w3.org/2001/XMLSchema-instance" xsi:noNamespaceSchemaLocation="http://sumo.dlr.de/xsd/net_file.xsd">

    <location netOffset="1072.81,536.41" convBoundary="0.00,0.00,2003.20,1178.12" origBoundary="-1072.81,-536.41,930.39,641.72" projParameter="!"/>

    <edge id=":A_0" function="internal">
        <lane id=":A_0_0" index="0" speed="8.10" length="14.57" shape="1071.21,870.87,1.08 1070.46,868.42,1.08 1068.21,866.67,1.08 1064.46,865.62,1.08 1059.21,865.27,1.08"/>
    </edge>
    <edge id=":A_1" function="internal">
        <lane id=":A_1_0" index="0" speed="40.00" length="28.08" shape="1071.21,870.87,1.08 1070.21,866.47,1.07 1068.01,860.63,1.06 1065.81,853.11,1.05 1064.81,843.67,1.03"/>
    </edge>
    <edge id=":A_2" function="internal">
        <lane id=":A_2_0" index="0" speed="8.10" length="14.57" shape="1086.41,858.87,1.08 1083.96,859.62,1.08 1082.21,861.87,1.08 1081.16,865.62,1.08 1080.81,870.87,1.08"/>
    </edge>
    <edge id=":A_3" function="internal">
        <lane id=":A_3_0" index="0" speed="40.00" length="28.08" shape="1086.41,858.87,1.08 1082.02,859.87,1.08 1076.18,862.07,1.08 1068.65,864.27,1.08 1059.21,865.27,1.08"/>
    </edge>
    <edge id=":A_4" function="internal">
        <lane id=":A_4_0" index="0" speed="8.10" length="14.57" shape="1074.41,843.67,1.03 1075.16,846.12,1.04 1077.41,847.87,1.05 1081.16,848.92,1.06 1086.41,849.27,1.08"/>
    </edge>
    <edge id=":A_5" function="internal">
        <lane id=":A_5_0" index="0" speed="40.00" length="28.08" shape="1074.41,843.67,1.03 1075.41,848.06,1.04 1077.61,853.90,1.05 1079.81,861.42,1.06 1080.81,870.87,1.08"/>
    </edge>
    <edge id=":A_6" function="internal">
        <lane id=":A_6_0" index="0" speed="8.10" length="14.57" shape="1059.21,855.67,1.08 1061.66,854.92,1.07 1063.41,852.67,1.06 1064.46,848.92,1.05 1064.81,843.67,1.03"/>
    </edge>
    <edge id=":A_7" function="internal">
        <lane id=":A_7_0" index="0" speed="40.00" length="28.08" shape="1059.21,855.67,1.08 1063.61,854.67,1.08 1069.45,852.47,1.08 1076.97,850.27,1.08 1086.41,849.27,1.08"/>
    </edge>
    <edge id=":AA_0" function="internal">
        <lane id=":AA_0_0" index="0" speed="3.65" length="4.67" shape="751.95,858.87,1.08 750.75,858.07,1.08 750.35,857.27,1.08 750.75,856.47,1.08 751.95,855.67,1.08"/>
    </edge>
    <edge id=":AB_0" function="internal">
        <lane id=":AB_0_0" index="0" speed="3.65" length="4.67" shape="1074.41,1178.12,1.08 1073.61,1179.32,1.08 1072.81,1179.72,1.08 1072.01,1179.32,1.08 1071.21,1178.12,1.08"/>
    </edge>
    <edge id=":AC_0" function="internal">
        <lane id=":AC_0_0" index="0" speed="3.65" length="4.67" shape="1393.67,855.67,1.08 1394.87,856.47,1.08 1395.27,857.27,1.08 1394.87,858.07,1.08 1393.67,858.87,1.08"/>
    </edge>
    <edge id=":B_0" function="internal">
        <lane id=":B_0_0" index="0" speed="6.51" length="9.03" shape="1536.41,543.61 1536.06,541.16 1535.01,539.41 1533.26,538.36 1530.81,538.01"/>
    </edge>
    <edge id=":B_1" function="internal">
        <lane id=":B_1_0" index="0" speed="25.00" length="14.40" shape="1536.41,543.61 1536.41,529.21"/>
    </edge>
    <edge id=":B_2" function="internal">
        <lane id=":B_2_0" index="0" speed="6.51" length="9.03" shape="1545.21,538.01 1542.76,538.36 1541.01,539.41 1539.96,541.16 1539.61,543.61"/>
    </edge>
    <edge id=":B_3" function="internal">
        <lane id=":B_3_0" index="0" speed="25.00" length="14.40" shape="1545.21,538.01 1530.81,538.01"/>
    </edge>
    <edge id=":B_4" function="internal">
        <lane id=":B_4_0" index="0" speed="6.51" length="9.03" shape="1539.61,529.21 1539.96,531.66 1541.01,533.41 1542.76,534.46 1545.21,534.81"/>
    </edge>
    <edge id=":B_5" function="internal">
        <lane id=":B_5_0" index="0" speed="25.00" length="14.40" shape="1539.61,529.21 1539.61,543.61"/>
    </edge>
    <edge id=":B_6" function="internal">
        <lane id=":B_6_0" index="0" speed="6.51" length="9.03" shape="1530.81,534.81 1533.26,534.46 1535.01,533.41 1536.06,531.66 1536.41,529.21"/>
    </edge>
    <edge id=":B_7" function="internal">
        <lane id=":B_7_0" index="0" speed="25.00" length="14.40" shape="1530.81,534.81 1545.21,534.81"/>
    </edge>
    <edge id=":BA_0" function="internal">
        <lane id=":BA_0_0" index="0" speed="3.65" length="4.67" shape="1539.61,1001.60 1538.81,1002.80 1538.01,1003.20 1537.21,1002.80 1536.41,1001.60"/>
    </edge>
    <edge id=":BB_0" function="internal">
        <lane id=":BB_0_0" index="0" speed="3.65" length="4.67" shape="2003.20,534.81 2004.40,535.61 2004.80,536.41 2004.40,537.21 2003.20,538.01"/>
    </edge>
    <edge id=":BC_0" function="internal">
        <lane id=":BC_0_0" index="0" speed="3.65" length="4.67" shape="1536.41,71.21 1537.21,70.01 1538.01,69.61 1538.81,70.01 1539.61,71.21"/>
    </edge>
    <edge id=":C_0" function="internal">
        <lane id=":C_0_0" index="0" speed="6.51" length="9.03" shape="1071.21,413.19,-0.34 1070.86,410.74,-0.34 1069.81,408.99,-0.35 1068.06,407.94,-0.35 1065.61,407.59,-0.36"/>
    </edge>
    <edge id=":C_1" function="internal">
        <lane id=":C_1_0" index="0" speed="40.00" length="14.40" shape="1071.21,413.19,-0.34 1071.21,398.79,-0.36"/>
    </edge>
    <edge id=":C_2" function="internal">
        <lane id=":C_2_0" index="0" speed="6.51" length="9.03" shape="1080.01,407.59,-0.36 1077.56,407.94,-0.35 1075.81,408.99,-0.35 1074.76,410.74,-0.34 1074.41,413.19,-0.34"/>
    </edge>
    <edge id=":C_3" function="internal">
        <lane id=":C_3_0" index="0" speed="40.00" length="14.40" shape="1080.01,407.59,-0.36 1065.61,407.59,-0.36"/>
    </edge>
    <edge id=":C_4" function="internal">
        <lane id=":C_4_0" index="0" speed="6.51" length="9.03" shape="1074.41,398.79,-0.36 1074.76,401.24,-0.36 1075.81,402.99,-0.36 1077.56,404.04,-0.36 1080.01,404.39,-0.36"/>
    </edge>
    <edge id=":C_5" function="internal">
        <lane id=":C_5_0" index="0" speed="40.00" length="14.40" shape="1074.41,398.79,-0.36 1074.41,413.19,-0.34"/>
    </edge>
    <edge id=":C_6" function="internal">
        <lane id=":C_6_0" index="0" speed="6.51" length="9.03" shape="1065.61,404.39,-0.36 1068.06,404.04,-0.36 1069.81,402.99,-0.36 1070.86,401.24,-0.36 1071.21,398.79,-0.36"/>
    </edge>
    <edge id=":C_7" function="internal">
        <lane id=":C_7_0" index="0" speed="40.00" length="14.40" shape="1065.61,404.39,-0.36 1080.01,404.39,-0.36"/>
    </edge>
    <edge id=":CA_0" function="internal">
        <lane id=":CA_0_0" index="0" speed="3.65" length="4.67" shape="1203.23,404.39,-0.36 1204.43,405.19,-0.36 1204.83,405.99,-0.36 1204.43,406.79,-0.36 1203.23,407.59,-0.36"/>
    </edge>
    <edge id=":CB_0" function="internal">
        <lane id=":CB_0_0" index="0" speed="3.65" length="4.67" shape="1071.21,275.58,-0.36 1072.01,274.38,-0.36 1072.81,273.98,-0.36 1073.61,274.38,-0.36 1074.41,275.58,-0.36"/>
    </edge>
    <edge id=":CC_0" function="internal">
        <lane id=":CC_0_0" index="0" speed="3.65" length="4.67" shape="942.40,407.59,-0.36 941.20,406.79,-0.36 940.80,405.99,-0.36 941.20,405.19,-0.36 942.40,404.39,-0.36"/>
    </edge>
    <edge id=":C_intern_0" function="internal">
        <lane id=":C_intern_0_0" index="0" speed="40.00" length="8.40" shape="1074.41,482.41,-0.15 1074.91,484.87,-0.14 1076.01,486.41,-0.14 1077.11,487.94,-0.13 1077.61,490.41,-0.13"/>
        <lane id=":C_intern_0_1" index="1" speed="40.00" length="8.40" shape="1074.41,482.41,-0.15 1074.41,490.41,-0.13"/>
    </edge>
    <edge id=":D_0" function="internal">
        <lane id=":D_0_0" index="0" speed="6.51" length="9.03" shape="534.81,543.61 534.46,541.16 533.41,539.41 531.66,538.36 529.21,538.01"/>
    </edge>
    <edge id=":D_1" function="internal">
        <lane id=":D_1_0" index="0" speed="25.00" length="14.40" shape="534.81,543.61 534.81,529.21"/>
    </edge>
    <edge id=":D_2" function="internal">
        <lane id=":D_2_0" index="0" speed="6.51" length="9.03" shape="543.61,538.01 541.16,538.36 539.41,539.41 538.36,541.16 538.01,543.61"/>
    </edge>
    <edge id=":D_3" function="internal">
        <lane id=":D_3_0" index="0" speed="25.00" length="14.40" shape="543.61,538.01 529.21,538.01"/>
    </edge>
    <edge id=":D_4" function="internal">
        <lane id=":D_4_0" index="0" speed="6.51" length="9.03" shape="538.01,529.21 538.36,531.66 539.41,533.41 541.16,534.46 543.61,534.81"/>
    </edge>
    <edge id=":D_5" function="internal">
        <lane id=":D_5_0" index="0" speed="25.00" length="14.40" shape="538.01,529.21 538.01,543.61"/>
    </edge>
    <edge id=":D_6" function="internal">
        <lane id=":D_6_0" index="0" speed="6.51" length="9.03" shape="529.21,534.81 531.66,534.46 533.41,533.41 534.46,531.66 534.81,529.21"/>
    </edge>
    <edge id=":D_7" function="internal">
        <lane id=":D_7_0" index="0" speed="25.00" length="14.40" shape="529.21,534.81 543.61,534.81"/>
    </edge>
    <edge id=":DA_0" function="internal">
        <lane id=":DA_0_0" index="0" speed="3.65" length="4.67" shape="534.81,0.00 535.61,-1.20 536.41,-1.60 537.21,-1.20 538.01,0.00"/>
    </edge>
    <edge id=":DB_0" function="internal">
        <lane id=":DB_0_0" index="0" speed="3.65" length="4.67" shape="0.00,538.01 -1.20,537.21 -1.60,536.41 -1.20,535.61 0.00,534.81"/>
    </edge>
    <edge id=":DC_0" function="internal">
        <lane id=":DC_0_0" index="0" speed="3.65" length="4.67" shape="538.01,1072.81 537.21,1074.01 536.41,1074.41 535.61,1074.01 534.81,1072.81"/>
    </edge>
    <edge id=":TL_0" function="internal">
        <lane id=":TL_0_0" index="0" speed="6.51" length="9.03" shape="1064.81,543.61,0.02 1064.46,541.16,0.02 1063.41,539.41,0.01 1061.66,538.36,0.01 1059.21,538.01"/>
    </edge>
    <edge id=":TL_1" function="internal">
        <lane id=":TL_1_0" index="0" speed="40.00" length="14.83" shape="1068.01,543.61,0.02 1068.51,538.95,0.01 1069.61,535.52,-0.00 1070.71,532.53,-0.01 1071.21,529.21,-0.02"/>
    </edge>
    <edge id=":TL_2" function="internal">
        <lane id=":TL_2_0" index="0" speed="8.67" length="5.00" shape="1071.21,543.61,0.02 1071.96,539.76,0.02 1072.65,538.92,0.02"/>
    </edge>
    <edge id=":TL_10" function="internal">
        <lane id=":TL_10_0" index="0" speed="8.67" length="11.85" shape="1072.65,538.92,0.02 1074.21,537.01,0.01 1077.96,535.36,0.01 1083.21,534.81"/>
    </edge>
    <edge id=":TL_3" function="internal">
        <lane id=":TL_3_0" index="0" speed="7.33" length="11.73" shape="1083.21,538.01 1079.36,538.36,0.01 1076.61,539.41,0.01 1074.96,541.16,0.02 1074.41,543.61,0.02"/>
    </edge>
    <edge id=":TL_4" function="internal">
        <lane id=":TL_4_0" index="0" speed="25.00" length="24.00" shape="1083.21,538.01 1059.21,538.01"/>
    </edge>
    <edge id=":TL_5" function="internal">
        <lane id=":TL_5_0" index="0" speed="6.51" length="9.03" shape="1077.61,529.21,-0.02 1077.96,531.66,-0.01 1079.01,533.41,-0.01 1080.76,534.46,-0.01 1083.21,534.81"/>
    </edge>
    <edge id=":TL_6" function="internal">
        <lane id=":TL_6_0" index="0" speed="40.00" length="14.83" shape="1077.61,529.21,-0.02 1077.11,533.87,-0.01 1076.01,537.30,0.00 1074.91,540.28,0.01 1074.41,543.61,0.02"/>
    </edge>
    <edge id=":TL_7" function="internal">
        <lane id=":TL_7_0" index="0" speed="9.32" length="4.26" shape="1074.41,529.21,-0.02 1073.46,533.06,-0.02 1073.25,533.26,-0.02"/>
    </edge>
    <edge id=":TL_11" function="internal">
        <lane id=":TL_11_0" index="0" speed="9.32" length="15.37" shape="1073.25,533.26,-0.02 1070.61,535.81,-0.01 1065.86,537.46,-0.01 1059.21,538.01"/>
    </edge>
    <edge id=":TL_8" function="internal">
        <lane id=":TL_8_0" index="0" speed="8.10" length="14.57" shape="1059.21,534.81 1064.46,534.46,-0.01 1068.21,533.41,-0.01 1070.46,531.66,-0.02 1071.21,529.21,-0.02"/>
    </edge>
    <edge id=":TL_9" function="internal">
        <lane id=":TL_9_0" index="0" speed="25.00" length="24.00" shape="1059.21,534.81 1083.21,534.81"/>
    </edge>

    <edge id="A2AA" from="A" to="AA" priority="-1">
        <lane id="A2AA_0" index="0" speed="40.00" length="307.26" shape="1059.21,865.27,1.08 751.95,865.27,1.08"/>
        <lane id="A2AA_1" index="1" speed="40.00" length="307.26" shape="1059.21,862.07,1.08 751.95,862.07,1.08"/>
        <lane id="A2AA_2" index="2" speed="40.00" length="307.26" shape="1059.21,858.87,1.08 751.95,858.87,1.08"/>
    </edge>
    <edge id="A2AB" from="A" to="AB" priority="-1">
        <lane id="A2AB_0" index="0" speed="40.00" length="307.26" shape="1080.81,870.87,1.08 1080.81,1178.12,1.08"/>
        <lane id="A2AB_1" index="1" speed="40.00" length="307.26" shape="1077.61,870.87,1.08 1077.61,1178.12,1.08"/>
        <lane id="A2AB_2" index="2" speed="40.00" length="307.26" shape="1074.41,870.87,1.08 1074.41,1178.12,1.08"/>
    </edge>
    <edge id="A2AC" from="A" to="AC" priority="-1">
        <lane id="A2AC_0" index="0" speed="40.00" length="307.26" shape="1086.41,849.27,1.08 1393.67,849.27,1.08"/>
        <lane id="A2AC_1" index="1" speed="40.00" length="307.26" shape="1086.41,852.47,1.08 1393.67,852.47,1.08"/>
        <lane id="A2AC_2" index="2" speed="40.00" length="307.26" shape="1086.41,855.67,1.08 1393.67,855.67,1.08"/>
    </edge>
    <edge id="A2TL" from="A" to="TL" priority="-1">
        <lane id="A2TL_0" index="0" speed="40.00" length="300.06" shape="1064.81,843.67,1.03 1064.81,543.61,0.02"/>
        <lane id="A2TL_1" index="1" speed="40.00" length="300.06" shape="1068.01,843.67,1.03 1068.01,543.61,0.02"/>
        <lane id="A2TL_2" index="2" speed="40.00" length="300.06" shape="1071.21,843.67,1.03 1071.21,543.61,0.02"/>
    </edge>
    <edge id="AA2A" from="AA" to="A" priority="-1">
        <lane id="AA2A_0" index="0" speed="40.00" length="307.26" shape="751.95,855.67,1.08 1059.21,855.67,1.08"/>
    </edge>
    <edge id="AB2A" from="AB" to="A" priority="-1">
        <lane id="AB2A_0" index="0" speed="40.00" length="307.26" shape="1071.21,1178.12,1.08 1071.21,870.87,1.08"/>
    </edge>
    <edge id="AC2A" from="AC" to="A" priority="-1">
        <lane id="AC2A_0" index="0" speed="40.00" length="307.26" shape="1393.67,858.87,1.08 1086.41,858.87,1.08"/>
    </edge>
    <edge id="B2BA" from="B" to="BA" priority="-1">
        <lane id="B2BA_0" index="0" speed="25.00" length="457.99" shape="1539.61,543.61 1539.61,1001.60"/>
    </edge>
    <edge id="B2BB" from="B" to="BB" priority="-1">
        <lane id="B2BB_0" index="0" speed="25.00" length="457.99" shape="1545.21,534.81 2003.20,534.81"/>
    </edge>
    <edge id="B2BC" from="B" to="BC" priority="-1">
        <lane id="B2BC_0" index="0" speed="25.00" length="457.99" shape="1536.41,529.21 1536.41,71.21"/>
    </edge>
    <edge id="B2TL" from="B" to="TL" priority="-1">
        <lane id="B2TL_0" index="0" speed="25.00" length="447.59" shape="1530.81,538.01 1083.21,538.01"/>
    </edge>
    <edge id="BA2B" from="BA" to="B" priority="-1">
        <lane id="BA2B_0" index="0" speed="25.00" length="457.99" shape="1536.41,1001.60 1536.41,543.61"/>
    </edge>
    <edge id="BB2B" from="BB" to="B" priority="-1">
        <lane id="BB2B_0" index="0" speed="25.00" length="457.99" shape="2003.20,538.01 1545.21,538.01"/>
    </edge>
    <edge id="BC2B" from="BC" to="B" priority="-1">
        <lane id="BC2B_0" index="0" speed="25.00" length="457.99" shape="1539.61,71.21 1539.61,529.21"/>
    </edge>
    <edge id="C2CA" from="C" to="CA" priority="-1">
        <lane id="C2CA_0" index="0" speed="40.00" length="123.21" shape="1080.01,404.39,-0.36 1203.23,404.39,-0.36"/>
    </edge>
    <edge id="C2CB" from="C" to="CB" priority="-1">
        <lane id="C2CB_0" index="0" speed="40.00" length="123.21" shape="1071.21,398.79,-0.36 1071.21,275.58,-0.36"/>
    </edge>
    <edge id="C2CC" from="C" to="CC" priority="-1">
        <lane id="C2CC_0" index="0" speed="40.00" length="123.21" shape="1065.61,407.59,-0.36 942.40,407.59,-0.36"/>
    </edge>
    <edge id="C2TL" from="C" to="C_intern" priority="-1">
        <lane id="C2TL_0" index="0" speed="40.00" length="69.21" shape="1074.41,413.19,-0.34 1074.41,482.41,-0.15"/>
    </edge>
    <edge id="C2TL_intern" from="C_intern" to="TL" priority="-1">
        <lane id="C2TL_intern_0" index="0" speed="40.00" length="38.80" shape="1077.61,490.41,-0.13 1077.61,529.21,-0.02"/>
        <lane id="C2TL_intern_1" index="1" speed="40.00" length="38.80" shape="1074.41,490.41,-0.13 1074.41,529.21,-0.02"/>
    </edge>
    <edge id="CA2C" from="CA" to="C" priority="-1">
        <lane id="CA2C_0" index="0" speed="40.00" length="123.21" shape="1203.23,407.59,-0.36 1080.01,407.59,-0.36"/>
    </edge>
    <edge id="CB2C" from="CB" to="C" priority="-1">
        <lane id="CB2C_0" index="0" speed="40.00" length="123.21" shape="1074.41,275.58,-0.36 1074.41,398.79,-0.36"/>
    </edge>
    <edge id="CC2C" from="CC" to="C" priority="-1">
        <lane id="CC2C_0" index="0" speed="40.00" length="123.21" shape="942.40,404.39,-0.36 1065.61,404.39,-0.36"/>
    </edge>
    <edge id="D2DA" from="D" to="DA" priority="-1">
        <lane id="D2DA_0" index="0" speed="25.00" length="529.21" shape="534.81,529.21 534.81,0.00"/>
    </edge>
    <edge id="D2DB" from="D" to="DB" priority="-1">
        <lane id="D2DB_0" index="0" speed="25.00" length="529.21" shape="529.21,538.01 0.00,538.01"/>
    </edge>
    <edge id="D2DC" from="D" to="DC" priority="-1">
        <lane id="D2DC_0" index="0" speed="25.00" length="529.21" shape="538.01,543.61 538.01,1072.81"/>
    </edge>
    <edge id="D2TL" from="D" to="TL" priority="-1">
        <lane id="D2TL_0" index="0" speed="25.00" length="515.61" shape="543.61,534.81 1059.21,534.81"/>
    </edge>
    <edge id="DA2D" from="DA" to="D" priority="-1">
        <lane id="DA2D_0" index="0" speed="25.00" length="529.21" shape="538.01,0.00 538.01,529.21"/>
    </edge>
    <edge id="DB2D" from="DB" to="D" priority="-1">
        <lane id="DB2D_0" index="0" speed="25.00" length="529.21" shape="0.00,534.81 529.21,534.81"/>
    </edge>
    <edge id="DC2D" from="DC" to="D" priority="-1">
        <lane id="DC2D_0" index="0" speed="25.00" length="529.21" shape="534.81,1072.81 534.81,543.61"/>
    </edge>
    <edge id="TL2A" from="TL" to="A" priority="-1">
        <lane id="TL2A_0" index="0" speed="40.00" length="300.06" shape="1074.41,543.61,0.02 1074.41,843.67,1.03"/>
    </edge>
    <edge id="TL2B" from="TL" to="B" priority="-1">
        <lane id="TL2B_0" index="0" speed="25.00" length="447.59" shape="1083.21,534.81 1530.81,534.81"/>
    </edge>
    <edge id="TL2C" from="TL" to="C" priority="-1">
        <lane id="TL2C_0" index="0" speed="40.00" length="116.01" shape="1071.21,529.21,-0.02 1071.21,413.19,-0.34"/>
    </edge>
    <edge id="TL2D" from="TL" to="D" priority="-1">
        <lane id="TL2D_0" index="0" speed="25.00" length="515.61" shape="1059.21,538.01 543.61,538.01"/>
    </edge>

    <tlLogic id="A" type="static" programID="0" offset="0">
        <phase duration="37" state="GGrrGGrr"/>
        <phase duration="8"  state="yyrryyrr"/>
        <phase duration="37" state="rrGGrrGG"/>
        <phase duration="8"  state="rryyrryy"/>
    </tlLogic>
    <tlLogic id="AA" type="static" programID="0" offset="0">
        <phase duration="77" state="G"/>
        <phase duration="8"  state="y"/>
        <phase duration="5"  state="r"/>
    </tlLogic>
    <tlLogic id="AB" type="static" programID="0" offset="0">
        <phase duration="77" state="G"/>
        <phase duration="8"  state="y"/>
        <phase duration="5"  state="r"/>
    </tlLogic>
    <tlLogic id="AC" type="static" programID="0" offset="0">
        <phase duration="77" state="G"/>
        <phase duration="8"  state="y"/>
        <phase duration="5"  state="r"/>
    </tlLogic>
    <tlLogic id="B" type="static" programID="0" offset="0">
        <phase duration="40" state="GGrrGGrr"/>
        <phase duration="5"  state="yyrryyrr"/>
        <phase duration="40" state="rrGGrrGG"/>
        <phase duration="5"  state="rryyrryy"/>
    </tlLogic>
    <tlLogic id="BA" type="static" programID="0" offset="0">
        <phase duration="80" state="G"/>
        <phase duration="5"  state="y"/>
        <phase duration="5"  state="r"/>
    </tlLogic>
    <tlLogic id="BB" type="static" programID="0" offset="0">
        <phase duration="80" state="G"/>
        <phase duration="5"  state="y"/>
        <phase duration="5"  state="r"/>
    </tlLogic>
    <tlLogic id="BC" type="static" programID="0" offset="0">
        <phase duration="80" state="G"/>
        <phase duration="5"  state="y"/>
        <phase duration="5"  state="r"/>
    </tlLogic>
    <tlLogic id="C" type="static" programID="0" offset="0">
        <phase duration="37" state="GGrrGGrr"/>
        <phase duration="8"  state="yyrryyrr"/>
        <phase duration="37" state="rrGGrrGG"/>
        <phase duration="8"  state="rryyrryy"/>
    </tlLogic>
    <tlLogic id="CA" type="static" programID="0" offset="0">
        <phase duration="77" state="G"/>
        <phase duration="8"  state="y"/>
        <phase duration="5"  state="r"/>
    </tlLogic>
    <tlLogic id="CB" type="static" programID="0" offset="0">
        <phase duration="77" state="G"/>
        <phase duration="8"  state="y"/>
        <phase duration="5"  state="r"/>
    </tlLogic>
    <tlLogic id="CC" type="static" programID="0" offset="0">
        <phase duration="77" state="G"/>
        <phase duration="8"  state="y"/>
        <phase duration="5"  state="r"/>
    </tlLogic>
    <tlLogic id="D" type="static" programID="0" offset="0">
        <phase duration="40" state="GGrrGGrr"/>
        <phase duration="5"  state="yyrryyrr"/>
        <phase duration="40" state="rrGGrrGG"/>
        <phase duration="5"  state="rryyrryy"/>
    </tlLogic>
    <tlLogic id="DA" type="static" programID="0" offset="0">
        <phase duration="80" state="G"/>
        <phase duration="5"  state="y"/>
        <phase duration="5"  state="r"/>
    </tlLogic>
    <tlLogic id="DB" type="static" programID="0" offset="0">
        <phase duration="80" state="G"/>
        <phase duration="5"  state="y"/>
        <phase duration="5"  state="r"/>
    </tlLogic>
    <tlLogic id="DC" type="static" programID="0" offset="0">
        <phase duration="80" state="G"/>
        <phase duration="5"  state="y"/>
        <phase duration="5"  state="r"/>
    </tlLogic>
    <tlLogic id="TL" type="static" programID="0" offset="0">
        <phase duration="30" state="GGrsrGGrsr"/>
        <phase duration="8"  state="yyrsryyrsr"/>
        <phase duration="6"  state="rrGsrrrGsr"/>
        <phase duration="8"  state="rrysrrrysr"/>
        <phase duration="30" state="srrGGsrrGG"/>
        <phase duration="8"  state="srryysrryy"/>
    </tlLogic>

    <junction id="A" type="traffic_light" x="1072.81" y="857.27" z="1.08" incLanes="AB2A_0 AC2A_0 TL2A_0 AA2A_0" intLanes=":A_0_0 :A_1_0 :A_2_0 :A_3_0 :A_4_0 :A_5_0 :A_6_0 :A_7_0" shape="1069.61,870.87,1.08 1082.41,870.87,1.08 1082.52,867.69,1.08 1082.86,865.09,1.08 1083.41,863.07,1.08 1084.19,861.62,1.08 1085.19,860.75,1.08 1086.41,860.47,1.08 1086.41,847.67,1.08 1083.24,847.55,1.08 1080.64,847.22,1.08 1078.61,846.67,1.08 1077.17,845.89,1.08 1076.30,844.89,1.08 1076.01,843.67,1.08 1063.21,843.67,1.08 1063.10,846.84,1.08 1062.77,849.44,1.08 1062.21,851.47,1.08 1061.44,852.91,1.08 1060.44,853.78,1.08 1059.21,854.07,1.08 1059.21,866.87,1.08 1062.39,866.98,1.08 1064.99,867.31,1.08 1067.01,867.87,1.08 1068.46,868.64,1.08 1069.32,869.64,1.08">
        <request index="0" response="00000000" foes="00001000" cont="0"/>
        <request index="1" response="00000000" foes="11001000" cont="0"/>
        <request index="2" response="00100000" foes="00100000" cont="0"/>
        <request index="3" response="00100011" foes="00100011" cont="0"/>
        <request index="4" response="00000000" foes="10000000" cont="0"/>
        <request index="5" response="00000000" foes="10001100" cont="0"/>
        <request index="6" response="00000010" foes="00000010" cont="0"/>
        <request index="7" response="00110010" foes="00110010" cont="0"/>
    </junction>
    <junction id="AA" type="traffic_light" x="751.95" y="857.27" z="1.08" incLanes="A2AA_0 A2AA_1 A2AA_2" intLanes=":AA_0_0" shape="751.95,857.27,1.08 751.95,866.87,1.08 751.95,857.27,1.08">
        <request index="0" response="0" foes="0" cont="0"/>
    </junction>
    <junction id="AB" type="traffic_light" x="1072.81" y="1178.12" z="1.08" incLanes="A2AB_0 A2AB_1 A2AB_2" intLanes=":AB_0_0" shape="1072.81,1178.12,1.08 1082.41,1178.12,1.08 1072.81,1178.12,1.08">
        <request index="0" response="0" foes="0" cont="0"/>
    </junction>
    <junction id="AC" type="traffic_light" x="1393.67" y="857.27" z="1.08" incLanes="A2AC_0 A2AC_1 A2AC_2" intLanes=":AC_0_0" shape="1393.67,857.27,1.08 1393.67,847.67,1.08 1393.67,857.27,1.08">
        <request index="0" response="0" foes="0" cont="0"/>
    </junction>
    <junction id="B" type="traffic_light" x="1538.01" y="536.41" incLanes="BA2B_0 BB2B_0 BC2B_0 TL2B_0" intLanes=":B_0_0 :B_1_0 :B_2_0 :B_3_0 :B_4_0 :B_5_0 :B_6_0 :B_7_0" shape="1534.81,543.61 1541.21,543.61 1541.65,541.38 1542.21,540.61 1542.98,540.05 1543.98,539.72 1545.21,539.61 1545.21,533.21 1542.98,532.76 1542.21,532.21 1541.65,531.43 1541.32,530.43 1541.21,529.21 1534.81,529.21 1534.36,531.43 1533.81,532.21 1533.03,532.76 1532.03,533.10 1530.81,533.21 1530.81,539.61 1533.03,540.05 1533.81,540.61 1534.36,541.38 1534.70,542.38">
        <request index="0" response="00000000" foes="00001000" cont="0"/>
        <request index="1" response="00000000" foes="11001000" cont="0"/>
        <request index="2" response="00100000" foes="00100000" cont="0"/>
        <request index="3" response="00100011" foes="00100011" cont="0"/>
        <request index="4" response="00000000" foes="10000000" cont="0"/>
        <request index="5" response="00000000" foes="10001100" cont="0"/>
        <request index="6" response="00000010" foes="00000010" cont="0"/>
        <request index="7" response="00110010" foes="00110010" cont="0"/>
    </junction>
    <junction id="BA" type="traffic_light" x="1538.01" y="1001.60" incLanes="B2BA_0" intLanes=":BA_0_0" shape="1538.01,1001.60 1541.21,1001.60 1538.01,1001.60">
        <request index="0" response="0" foes="0" cont="0"/>
    </junction>
    <junction id="BB" type="traffic_light" x="2003.20" y="536.41" incLanes="B2BB_0" intLanes=":BB_0_0" shape="2003.20,536.41 2003.20,533.21 2003.20,536.41">
        <request index="0" response="0" foes="0" cont="0"/>
    </junction>
    <junction id="BC" type="traffic_light" x="1538.01" y="71.21" incLanes="B2BC_0" intLanes=":BC_0_0" shape="1538.01,71.21 1534.81,71.21 1538.01,71.21">
        <request index="0" response="0" foes="0" cont="0"/>
    </junction>
    <junction id="C" type="traffic_light" x="1072.81" y="405.99" z="-0.36" incLanes="TL2C_0 CA2C_0 CB2C_0 CC2C_0" intLanes=":C_0_0 :C_1_0 :C_2_0 :C_3_0 :C_4_0 :C_5_0 :C_6_0 :C_7_0" shape="1069.61,413.19,-0.36 1076.01,413.19,-0.36 1076.46,410.97,-0.36 1077.01,410.19,-0.36 1077.79,409.64,-0.36 1078.79,409.31,-0.36 1080.01,409.19,-0.36 1080.01,402.79,-0.36 1077.79,402.35,-0.36 1077.01,401.79,-0.36 1076.46,401.02,-0.36 1076.12,400.02,-0.36 1076.01,398.79,-0.36 1069.61,398.79,-0.36 1069.17,401.02,-0.36 1068.61,401.79,-0.36 1067.84,402.35,-0.36 1066.84,402.68,-0.36 1065.61,402.79,-0.36 1065.61,409.19,-0.36 1067.84,409.64,-0.36 1068.61,410.19,-0.36 1069.17,410.97,-0.36 1069.50,411.97,-0.36">
        <request index="0" response="00000000" foes="00001000" cont="0"/>
        <request index="1" response="00000000" foes="11001000" cont="0"/>
        <request index="2" response="00100000" foes="00100000" cont="0"/>
        <request index="3" response="00100011" foes="00100011" cont="0"/>
        <request index="4" response="00000000" foes="10000000" cont="0"/>
        <request index="5" response="00000000" foes="10001100" cont="0"/>
        <request index="6" response="00000010" foes="00000010" cont="0"/>
        <request index="7" response="00110010" foes="00110010" cont="0"/>
    </junction>
    <junction id="CA" type="traffic_light" x="1203.23" y="405.99" z="-0.36" incLanes="C2CA_0" intLanes=":CA_0_0" shape="1203.23,405.99,-0.36 1203.23,402.79,-0.36 1203.23,405.99,-0.36">
        <request index="0" response="0" foes="0" cont="0"/>
    </junction>
    <junction id="CB" type="traffic_light" x="1072.81" y="275.58" z="-0.36" incLanes="C2CB_0" intLanes=":CB_0_0" shape="1072.81,275.58,-0.36 1069.61,275.58,-0.36 1072.81,275.58,-0.36">
        <request index="0" response="0" foes="0" cont="0"/>
    </junction>
    <junction id="CC" type="traffic_light" x="942.40" y="405.99" z="-0.36" incLanes="C2CC_0" intLanes=":CC_0_0" shape="942.40,405.99,-0.36 942.40,409.19,-0.36 942.40,405.99,-0.36">
        <request index="0" response="0" foes="0" cont="0"/>
    </junction>
    <junction id="C_intern" type="priority" x="1072.81" y="486.41" z="-0.14" incLanes="C2TL_0" intLanes=":C_intern_0_0 :C_intern_0_1" shape="1072.81,490.41,-0.14 1079.21,490.41,-0.14 1078.38,487.38,-0.14 1076.84,485.44,-0.14 1076.25,484.20,-0.14 1076.01,482.41,-0.14 1072.81,482.41,-0.14">
        <request index="0" response="00" foes="00" cont="0"/>