<?xml version="1.0" encoding="UTF-8"?>

<!-- generated on 2022-10-11 17:10:50 by Eclipse SUMO netconvert Version 1.14.1
<configuration xmlns:xsi="http://www.w3.org/2001/XMLSchema-instance" xsi:noNamespaceSchemaLocation="http://sumo.dlr.de/xsd/netconvertConfiguration.xsd">

    <input>
        <node-files value="../data/salt-lake-city/nodes.nod.xml"/>
        <edge-files value="../data/salt-lake-city/edges.edg.xml"/>
        <connection-files value="../data/salt-lake-city/connections.con.xml"/>
    </input>

    <output>
        <output-file value="../data/salt-lake-city/sumo/net/5.net.xml"/>
    </output>

    <tls_building>
        <tls.minor-left.max-speed value="1"/>
    </tls_building>

    <report>
        <verbose value="true"/>
    </report>

</configuration>
-->

<net version="1.9" junctionCornerDetail="5" limitTurnSpeed="5.50" xmlns:xsi="http://www.w3.org/2001/XMLSchema-instance" xsi:noNamespaceSchemaLocation="http://sumo.dlr.de/xsd/net_file.xsd">

    <location netOffset="633.57,621.39" convBoundary="0.00,0.00,1269.98,1262.81" origBoundary="-633.57,-621.39,636.41,641.42" projParameter="!"/>

    <edge id=":A_0" function="internal">
        <lane id=":A_0_0" index="0" speed="7.33" length="11.73" shape="628.77,955.70,5.38 628.22,953.25,5.38 626.57,951.50,5.38 623.82,950.45,5.38 619.97,950.10,5.38"/>
    </edge>
    <edge id=":A_1" function="internal">
        <lane id=":A_1_0" index="0" speed="30.00" length="27.43" shape="628.77,955.70,5.38 628.27,949.15,5.38 627.17,943.48,5.38 626.07,937.12,5.38 625.57,928.50,5.38"/>
        <lane id=":A_1_1" index="1" speed="30.00" length="27.43" shape="631.97,955.70,5.38 631.47,949.15,5.38 630.37,943.48,5.38 629.27,937.12,5.38 628.77,928.50,5.38"/>
    </edge>
    <edge id=":A_3" function="internal">
        <lane id=":A_3_0" index="0" speed="10.36" length="10.84" shape="631.97,955.70,5.38 632.92,949.05,5.38 635.04,945.51,5.38"/>
    </edge>
    <edge id=":A_16" function="internal">
        <lane id=":A_16_0" index="0" speed="10.36" length="13.67" shape="635.04,945.51,5.38 635.77,944.30,5.38 640.52,941.45,5.38 647.17,940.50,5.38"/>
    </edge>
    <edge id=":A_4" function="internal">
        <lane id=":A_4_0" index="0" speed="7.33" length="11.73" shape="647.17,946.90,5.38 644.72,947.45,5.38 642.97,949.10,5.38 641.92,951.85,5.38 641.57,955.70,5.38"/>
    </edge>
    <edge id=":A_5" function="internal">
        <lane id=":A_5_0" index="0" speed="30.00" length="27.43" shape="647.17,946.90,5.38 640.62,947.40,5.38 634.95,948.50,5.38 628.59,949.60,5.38 619.97,950.10,5.38"/>
        <lane id=":A_5_1" index="1" speed="30.00" length="27.43" shape="647.17,943.70,5.38 640.62,944.20,5.38 634.95,945.30,5.38 628.59,946.40,5.38 619.97,946.90,5.38"/>
    </edge>
    <edge id=":A_7" function="internal">
        <lane id=":A_7_0" index="0" speed="10.36" length="10.84" shape="647.17,943.70,5.38 640.52,942.75,5.38 636.98,940.62,5.38"/>
    </edge>
    <edge id=":A_17" function="internal">
        <lane id=":A_17_0" index="0" speed="10.36" length="13.67" shape="636.98,940.62,5.38 635.77,939.90,5.38 632.92,935.15,5.38 631.97,928.50,5.38"/>
    </edge>
    <edge id=":A_8" function="internal">
        <lane id=":A_8_0" index="0" speed="7.33" length="11.73" shape="638.37,928.50,5.38 638.92,930.95,5.38 640.57,932.70,5.38 643.32,933.75,5.38 647.17,934.10,5.38"/>
    </edge>
    <edge id=":A_9" function="internal">
        <lane id=":A_9_0" index="0" speed="30.00" length="27.43" shape="638.37,928.50,5.38 638.87,935.04,5.38 639.97,940.71,5.38 641.07,947.08,5.38 641.57,955.70,5.38"/>
        <lane id=":A_9_1" index="1" speed="30.00" length="27.43" shape="635.17,928.50,5.38 635.67,935.04,5.38 636.77,940.71,5.38 637.87,947.08,5.38 638.37,955.70,5.38"/>
    </edge>
    <edge id=":A_11" function="internal">
        <lane id=":A_11_0" index="0" speed="10.36" length="10.84" shape="635.17,928.50,5.38 634.22,935.15,5.38 632.09,938.69,5.38"/>
    </edge>
    <edge id=":A_18" function="internal">
        <lane id=":A_18_0" index="0" speed="10.36" length="13.67" shape="632.09,938.69,5.38 631.37,939.90,5.38 626.62,942.75,5.38 619.97,943.70,5.38"/>
    </edge>
    <edge id=":A_12" function="internal">
        <lane id=":A_12_0" index="0" speed="7.33" length="11.73" shape="619.97,937.30,5.38 622.42,936.75,5.38 624.17,935.10,5.38 625.22,932.35,5.38 625.57,928.50,5.38"/>
    </edge>
    <edge id=":A_13" function="internal">
        <lane id=":A_13_0" index="0" speed="30.00" length="27.43" shape="619.97,937.30,5.38 626.51,936.80,5.38 632.18,935.70,5.38 638.55,934.60,5.38 647.17,934.10,5.38"/>
        <lane id=":A_13_1" index="1" speed="30.00" length="27.43" shape="619.97,940.50,5.38 626.51,940.00,5.38 632.18,938.90,5.38 638.55,937.80,5.38 647.17,937.30,5.38"/>
    </edge>
    <edge id=":A_15" function="internal">
        <lane id=":A_15_0" index="0" speed="10.36" length="10.84" shape="619.97,940.50,5.38 626.62,941.45,5.38 630.16,943.57,5.38"/>
    </edge>
    <edge id=":A_19" function="internal">
        <lane id=":A_19_0" index="0" speed="10.36" length="13.67" shape="630.16,943.57,5.38 631.37,944.30,5.38 634.22,949.05,5.38 635.17,955.70,5.38"/>
    </edge>
    <edge id=":AA_0" function="internal">
        <lane id=":AA_0_0" index="0" speed="3.65" length="4.67" shape="312.86,943.70,5.38 311.66,942.90,5.38 311.26,942.10,5.38 311.66,941.30,5.38 312.86,940.50,5.38"/>
    </edge>
    <edge id=":AB_0" function="internal">
        <lane id=":AB_0_0" index="0" speed="3.65" length="4.67" shape="635.17,1262.81,5.38 634.37,1264.01,5.38 633.57,1264.41,5.38 632.77,1264.01,5.38 631.97,1262.81,5.38"/>
    </edge>
    <edge id=":AC_0" function="internal">
        <lane id=":AC_0_0" index="0" speed="3.65" length="4.67" shape="954.28,940.50,5.38 955.48,941.30,5.38 955.88,942.10,5.38 955.48,942.90,5.38 954.28,943.70,5.38"/>
    </edge>
    <edge id=":B_0" function="internal">
        <lane id=":B_0_0" index="0" speed="6.51" length="9.03" shape="946.97,631.79,-4.66 946.62,629.34,-4.61 945.57,627.59,-4.58 943.82,626.54,-4.54 941.37,626.19,-4.50"/>
    </edge>
    <edge id=":B_1" function="internal">
        <lane id=":B_1_0" index="0" speed="25.00" length="20.80" shape="946.97,631.79,-4.66 946.97,610.99,-4.66"/>
        <lane id=":B_1_1" index="1" speed="25.00" length="20.80" shape="950.17,631.79,-4.66 950.17,610.99,-4.66"/>
    </edge>
    <edge id=":B_3" function="internal">
        <lane id=":B_3_0" index="0" speed="9.26" length="5.01" shape="950.17,631.79,-4.66 950.88,626.82,-4.66"/>
    </edge>
    <edge id=":B_16" function="internal">
        <lane id=":B_16_0" index="0" speed="9.26" length="14.34" shape="950.88,626.82,-4.66 950.92,626.54,-4.66 953.17,622.79,-4.66 956.92,620.54,-4.66 962.17,619.79,-4.66"/>
    </edge>
    <edge id=":B_4" function="internal">
        <lane id=":B_4_0" index="0" speed="6.51" length="9.03" shape="962.17,626.19,-4.66 959.72,626.54,-4.66 957.97,627.59,-4.66 956.92,629.34,-4.66 956.57,631.79,-4.66"/>
    </edge>
    <edge id=":B_5" function="internal">
        <lane id=":B_5_0" index="0" speed="25.00" length="20.80" shape="962.17,626.19,-4.66 941.37,626.19,-4.50"/>
        <lane id=":B_5_1" index="1" speed="25.00" length="20.80" shape="962.17,622.99,-4.66 941.37,622.99,-4.50"/>
    </edge>
    <edge id=":B_7" function="internal">
        <lane id=":B_7_0" index="0" speed="9.26" length="5.01" shape="962.17,622.99,-4.66 957.21,622.28,-4.66"/>
    </edge>
    <edge id=":B_17" function="internal">
        <lane id=":B_17_0" index="0" speed="9.26" length="14.34" shape="957.21,622.28,-4.66 956.92,622.24,-4.66 953.17,619.99,-4.66 950.92,616.24,-4.66 950.17,610.99,-4.66"/>
    </edge>
    <edge id=":B_8" function="internal">
        <lane id=":B_8_0" index="0" speed="6.51" length="9.03" shape="956.57,610.99,-4.66 956.92,613.44,-4.66 957.97,615.19,-4.66 959.72,616.24,-4.66 962.17,616.59,-4.66"/>
    </edge>
    <edge id=":B_9" function="internal">
        <lane id=":B_9_0" index="0" speed="25.00" length="20.80" shape="956.57,610.99,-4.66 956.57,631.79,-4.66"/>
        <lane id=":B_9_1" index="1" speed="25.00" length="20.80" shape="953.37,610.99,-4.66 953.37,631.79,-4.66"/>
    </edge>
    <edge id=":B_11" function="internal">
        <lane id=":B_11_0" index="0" speed="9.26" length="5.01" shape="953.37,610.99,-4.66 952.66,615.95,-4.62"/>
    </edge>
    <edge id=":B_18" function="internal">
        <lane id=":B_18_0" index="0" speed="9.26" length="14.34" shape="952.66,615.95,-4.62 952.62,616.24,-4.61 950.37,619.99,-4.58 946.62,622.24,-4.54 941.37,622.99,-4.50"/>
    </edge>
    <edge id=":B_12" function="internal">
        <lane id=":B_12_0" index="0" speed="6.51" length="9.03" shape="941.37,616.59,-4.50 943.82,616.24,-4.54 945.57,615.19,-4.58 946.62,613.44,-4.61 946.97,610.99,-4.66"/>
    </edge>
    <edge id=":B_13" function="internal">
        <lane id=":B_13_0" index="0" speed="25.00" length="20.80" shape="941.37,616.59,-4.50 962.17,616.59,-4.66"/>
        <lane id=":B_13_1" index="1" speed="25.00" length="20.80" shape="941.37,619.79,-4.50 962.17,619.79,-4.66"/>
    </edge>
    <edge id=":B_15" function="internal">
        <lane id=":B_15_0" index="0" speed="9.26" length="5.01" shape="941.37,619.79,-4.50 946.34,620.49,-4.54"/>
    </edge>
    <edge id=":B_19" function="internal">
        <lane id=":B_19_0" index="0" speed="9.26" length="14.34" shape="946.34,620.49,-4.54 946.62,620.54,-4.54 950.37,622.79,-4.58 952.62,626.54,-4.61 953.37,631.79,-4.66"/>
    </edge>
    <edge id=":BA_0" function="internal">
        <lane id=":BA_0_0" index="0" speed="3.65" length="4.67" shape="953.37,939.59,-4.66 952.57,940.79,-4.66 951.77,941.19,-4.66 950.97,940.79,-4.66 950.17,939.59,-4.66"/>
    </edge>
    <edge id=":BB_0" function="internal">
        <lane id=":BB_0_0" index="0" speed="3.65" length="4.67" shape="1269.98,619.79,-4.66 1271.18,620.59,-4.66 1271.58,621.39,-4.66 1271.18,622.19,-4.66 1269.98,622.99,-4.66"/>
    </edge>
    <edge id=":BC_0" function="internal">
        <lane id=":BC_0_0" index="0" speed="3.65" length="4.67" shape="950.17,303.18,-4.66 950.97,301.98,-4.66 951.77,301.58,-4.66 952.57,301.98,-4.66 953.37,303.18,-4.66"/>
    </edge>
    <edge id=":C_0" function="internal">
        <lane id=":C_0_0" index="0" speed="6.51" length="9.03" shape="628.77,321.09,-4.94 628.42,318.64,-4.99 627.37,316.89,-5.03 625.62,315.84,-5.07 623.17,315.49,-5.11"/>
    </edge>
    <edge id=":C_1" function="internal">
        <lane id=":C_1_0" index="0" speed="30.00" length="20.80" shape="628.77,321.09,-4.94 628.77,300.29,-5.11"/>
        <lane id=":C_1_1" index="1" speed="30.00" length="20.80" shape="631.97,321.09,-4.94 631.97,300.29,-5.11"/>
    </edge>
    <edge id=":C_3" function="internal">
        <lane id=":C_3_0" index="0" speed="9.26" length="5.01" shape="631.97,321.09,-4.94 632.68,316.13,-4.99"/>
    </edge>
    <edge id=":C_16" function="internal">
        <lane id=":C_16_0" index="0" speed="9.26" length="14.34" shape="632.68,316.13,-4.99 632.72,315.84,-4.99 634.97,312.09,-5.03 638.72,309.84,-5.07 643.97,309.09,-5.11"/>
    </edge>
    <edge id=":C_4" function="internal">
        <lane id=":C_4_0" index="0" speed="6.51" length="9.03" shape="643.97,315.49,-5.11 641.52,315.84,-5.07 639.77,316.89,-5.03 638.72,318.64,-4.99 638.37,321.09,-4.94"/>
    </edge>
    <edge id=":C_5" function="internal">
        <lane id=":C_5_0" index="0" speed="30.00" length="20.80" shape="643.97,315.49,-5.11 623.17,315.49,-5.11"/>
        <lane id=":C_5_1" index="1" speed="30.00" length="20.80" shape="643.97,312.29,-5.11 623.17,312.29,-5.11"/>
    </edge>
    <edge id=":C_7" function="internal">
        <lane id=":C_7_0" index="0" speed="9.26" length="5.01" shape="643.97,312.29,-5.11 639.00,311.58,-5.11"/>
    </edge>
    <edge id=":C_17" function="internal">
        <lane id=":C_17_0" index="0" speed="9.26" length="14.34" shape="639.00,311.58,-5.11 638.72,311.54,-5.11 634.97,309.29,-5.11 632.72,305.54,-5.11 631.97,300.29,-5.11"/>
    </edge>
    <edge id=":C_8" function="internal">
        <lane id=":C_8_0" index="0" speed="6.51" length="9.03" shape="638.37,300.29,-5.11 638.72,302.74,-5.11 639.77,304.49,-5.11 641.52,305.54,-5.11 643.97,305.89,-5.11"/>
    </edge>
    <edge id=":C_9" function="internal">
        <lane id=":C_9_0" index="0" speed="30.00" length="20.80" shape="638.37,300.29,-5.11 638.37,321.09,-4.94"/>
        <lane id=":C_9_1" index="1" speed="30.00" length="20.80" shape="635.17,300.29,-5.11 635.17,321.09,-4.94"/>
    </edge>
    <edge id=":C_11" function="internal">
        <lane id=":C_11_0" index="0" speed="9.26" length="5.01" shape="635.17,300.29,-5.11 634.46,305.26,-5.11"/>
    </edge>
    <edge id=":C_18" function="internal">
        <lane id=":C_18_0" index="0" speed="9.26" length="14.34" shape="634.46,305.26,-5.11 634.42,305.54,-5.11 632.17,309.29,-5.11 628.42,311.54,-5.11 623.17,312.29,-5.11"/>
    </edge>
    <edge id=":C_12" function="internal">
        <lane id=":C_12_0" index="0" speed="6.51" length="9.03" shape="623.17,305.89,-5.11 625.62,305.54,-5.11 627.37,304.49,-5.11 628.42,302.74,-5.11 628.77,300.29,-5.11"/>
    </edge>
    <edge id=":C_13" function="internal">
        <lane id=":C_13_0" index="0" speed="30.00" length="20.80" shape="623.17,305.89,-5.11 643.97,305.89,-5.11"/>
        <lane id=":C_13_1" index="1" speed="30.00" length="20.80" shape="623.17,309.09,-5.11 643.97,309.09,-5.11"/>
    </edge>
    <edge id=":C_15" function="internal">
        <lane id=":C_15_0" index="0" speed="9.26" length="5.01" shape="623.17,309.09,-5.11 628.13,309.80,-5.07"/>
    </edge>
    <edge id=":C_19" function="internal">
        <lane id=":C_19_0" index="0" speed="9.26" length="14.34" shape="628.13,309.80,-5.07 628.42,309.84,-5.07 632.17,312.09,-5.03 634.42,315.84,-4.99 635.17,321.09,-4.94"/>
    </edge>
    <edge id=":CA_0" function="internal">
        <lane id=":CA_0_0" index="0" speed="3.65" length="4.67" shape="944.26,309.09,-5.11 945.46,309.89,-5.11 945.86,310.69,-5.11 945.46,311.49,-5.11 944.26,312.29,-5.11"/>
    </edge>
    <edge id=":CB_0" function="internal">
        <lane id=":CB_0_0" index="0" speed="3.65" length="4.67" shape="631.97,0.00,-5.11 632.77,-1.20,-5.11 633.57,-1.60,-5.11 634.37,-1.20,-5.11 635.17,0.00,-5.11"/>
    </edge>
    <edge id=":CC_0" function="internal">
        <lane id=":CC_0_0" index="0" speed="3.65" length="4.67" shape="322.87,312.29,-5.11 321.67,311.49,-5.11 321.27,310.69,-5.11 321.67,309.89,-5.11 322.87,309.09,-5.11"/>
    </edge>
    <edge id=":C_intern_0" function="internal">
        <lane id=":C_intern_0_0" index="0" speed="30.00" length="8.54" shape="638.37,567.39,-0.89 638.87,569.85,-0.85 639.97,571.39,-0.82 641.07,572.92,-0.79 641.57,575.39,-0.76"/>
        <lane id=":C_intern_0_1" index="1" speed="30.00" length="8.54" shape="635.17,567.39,-0.89 635.67,569.85,-0.85 636.77,571.39,-0.82 637.87,572.92,-0.79 638.37,575.39,-0.76"/>
        <lane id=":C_intern_0_2" index="2" speed="30.00" length="8.54" shape="635.17,567.39,-0.89 635.17,575.39,-0.76"/>
    </edge>
    <edge id=":D_0" function="internal">
        <lane id=":D_0_0" index="0" speed="6.51" length="9.03" shape="311.98,631.79,-10.04 311.63,629.34,-10.04 310.58,627.59,-10.04 308.83,626.54,-10.04 306.38,626.19,-10.04"/>
    </edge>
    <edge id=":D_1" function="internal">
        <lane id=":D_1_0" index="0" speed="25.00" length="20.80" shape="311.98,631.79,-10.04 311.98,610.99,-10.04"/>
        <lane id=":D_1_1" index="1" speed="25.00" length="20.80" shape="315.18,631.79,-10.04 315.18,610.99,-10.04"/>
    </edge>
    <edge id=":D_3" function="internal">
        <lane id=":D_3_0" index="0" speed="9.26" length="5.01" shape="315.18,631.79,-10.04 315.89,626.82,-10.04"/>
    </edge>
    <edge id=":D_16" function="internal">
        <lane id=":D_16_0" index="0" speed="9.26" length="14.34" shape="315.89,626.82,-10.04 315.93,626.54,-10.04 318.18,622.79,-10.04 321.93,620.54,-10.04 327.18,619.79,-10.04"/>
    </edge>
    <edge id=":D_4" function="internal">
        <lane id=":D_4_0" index="0" speed="6.51" length="9.03" shape="327.18,626.19,-10.04 324.73,626.54,-10.04 322.98,627.59,-10.04 321.93,629.34,-10.04 321.58,631.79,-10.04"/>
    </edge>
    <edge id=":D_5" function="internal">
        <lane id=":D_5_0" index="0" speed="25.00" length="20.80" shape="327.18,626.19,-10.04 306.38,626.19,-10.04"/>
        <lane id=":D_5_1" index="1" speed="25.00" length="20.80" shape="327.18,622.99,-10.04 306.38,622.99,-10.04"/>
    </edge>
    <edge id=":D_7" function="internal">
        <lane id=":D_7_0" index="0" speed="9.26" length="5.01" shape="327.18,622.99,-10.04 322.22,622.28,-10.04"/>
    </edge>
    <edge id=":D_17" function="internal">
        <lane id=":D_17_0" index="0" speed="9.26" length="14.34" shape="322.22,622.28,-10.04 321.93,622.24,-10.04 318.18,619.99,-10.04 315.93,616.24,-10.04 315.18,610.99,-10.04"/>
    </edge>
    <edge id=":D_8" function="internal">
        <lane id=":D_8_0" index="0" speed="6.51" length="9.03" shape="321.58,610.99,-10.04 321.93,613.44,-10.04 322.98,615.19,-10.04 324.73,616.24,-10.04 327.18,616.59,-10.04"/>
    </edge>
    <edge id=":D_9" function="internal">
        <lane id=":D_9_0" index="0" speed="25.00" length="20.80" shape="321.58,610.99,-10.04 321.58,631.79,-10.04"/>
        <lane id=":D_9_1" index="1" speed="25.00" length="20.80" shape="318.38,610.99,-10.04 318.38,631.79,-10.04"/>
    </edge>
    <edge id=":D_11" function="internal">
        <lane id=":D_11_0" index="0" speed="9.26" length="5.01" shape="318.38,610.99,-10.04 317.67,615.95,-10.04"/>
    </edge>
    <edge id=":D_18" function="internal">
        <lane id=":D_18_0" index="0" speed="9.26" length="14.34" shape="317.67,615.95,-10.04 317.63,616.24,-10.04 315.38,619.99,-10.04 311.63,622.24,-10.04 306.38,622.99,-10.04"/>
    </edge>
    <edge id=":D_12" function="internal">
        <lane id=":D_12_0" index="0" speed="6.51" length="9.03" shape="306.38,616.59,-10.04 308.83,616.24,-10.04 310.58,615.19,-10.04 311.63,613.44,-10.04 311.98,610.99,-10.04"/>
    </edge>
    <edge id=":D_13" function="internal">
        <lane id=":D_13_0" index="0" speed="25.00" length="20.80" shape="306.38,616.59,-10.04 327.18,616.59,-10.04"/>
        <lane id=":D_13_1" index="1" speed="25.00" length="20.80" shape="306.38,619.79,-10.04 327.18,619.79,-10.04"/>
    </edge>
    <edge id=":D_15" function="internal">
        <lane id=":D_15_0" index="0" speed="9.26" length="5.01" shape="306.38,619.79,-10.04 311.35,620.50,-10.04"/>
    </edge>
    <edge id=":D_19" function="internal">
        <lane id=":D_19_0" index="0" speed="9.26" length="14.34" shape="311.35,620.50,-10.04 311.63,620.54,-10.04 315.38,622.79,-10.04 317.63,626.54,-10.04 318.38,631.79,-10.04"/>
    </edge>
    <edge id=":DA_0" function="internal">
        <lane id=":DA_0_0" index="0" speed="3.65" length="4.67" shape="315.18,304.60,-10.04 315.98,303.40,-10.04 316.78,303.00,-10.04 317.58,303.40,-10.04 318.38,304.60,-10.04"/>
    </edge>
    <edge id=":DB_0" function="internal">
        <lane id=":DB_0_0" index="0" speed="3.65" length="4.67" shape="-0.00,622.99,-10.04 -1.20,622.19,-10.04 -1.60,621.39,-10.04 -1.20,620.59,-10.04 -0.00,619.79,-10.04"/>
    </edge>
    <edge id=":DC_0" function="internal">
        <lane id=":DC_0_0" index="0" speed="3.65" length="4.67" shape="318.38,938.17,-10.04 317.58,939.37,-10.04 316.78,939.77,-10.04 315.98,939.37,-10.04 315.18,938.17,-10.04"/>
    </edge>
    <edge id=":TL_0" function="internal">
        <lane id=":TL_0_0" index="0" speed="6.51" length="9.03" shape="625.57,631.79,0.18 625.22,629.34,0.13 624.17,627.59,0.09 622.42,626.54,0.05 619.97,626.19"/>
    </edge>
    <edge id=":TL_1" function="internal">
        <lane id=":TL_1_0" index="0" speed="30.00" length="21.12" shape="625.57,631.79,0.18 626.07,625.50,0.08 627.17,621.19,0.00 628.27,616.98,-0.07 628.77,610.99,-0.17"/>
        <lane id=":TL_1_1" index="1" speed="30.00" length="21.12" shape="628.77,631.79,0.18 629.27,625.50,0.08 630.37,621.19,0.00 631.47,616.98,-0.07 631.97,610.99,-0.17"/>
    </edge>
    <edge id=":TL_3" function="internal">
        <lane id=":TL_3_0" index="0" speed="9.84" length="5.50" shape="631.97,631.79,0.18 632.92,626.54,0.09 633.02,626.41,0.09"/>
    </edge>
    <edge id=":TL_16" function="internal">
        <lane id=":TL_16_0" index="0" speed="9.84" length="16.50" shape="633.02,626.41,0.09 635.77,622.79,0.01 640.52,620.54,-0.08 647.17,619.79,-0.20"/>
    </edge>
    <edge id=":TL_4" function="internal">
        <lane id=":TL_4_0" index="0" speed="7.33" length="11.73" shape="647.17,626.19,-0.20 643.32,626.54,-0.08 640.57,627.59,0.02 638.92,629.34,0.09 638.37,631.79,0.17"/>
    </edge>
    <edge id=":TL_5" function="internal">
        <lane id=":TL_5_0" index="0" speed="25.00" length="27.20" shape="647.17,626.19,-0.20 619.97,626.19"/>
        <lane id=":TL_5_1" index="1" speed="25.00" length="27.20" shape="647.17,622.99,-0.20 619.97,622.99"/>
    </edge>
    <edge id=":TL_7" function="internal">
        <lane id=":TL_7_0" index="0" speed="9.84" length="6.30" shape="647.17,622.99,-0.20 640.91,622.28,-0.19"/>
    </edge>
    <edge id=":TL_17" function="internal">
        <lane id=":TL_17_0" index="0" speed="9.84" length="15.70" shape="640.91,622.28,-0.19 640.52,622.24,-0.19 635.77,619.99,-0.18 632.92,616.24,-0.18 631.97,610.99,-0.17"/>
    </edge>
    <edge id=":TL_8" function="internal">
        <lane id=":TL_8_0" index="0" speed="6.51" length="9.03" shape="641.57,610.99,-0.17 641.92,613.44,-0.18 642.97,615.19,-0.19 644.72,616.24,-0.19 647.17,616.59,-0.20"/>
    </edge>
    <edge id=":TL_9" function="internal">
        <lane id=":TL_9_0" index="0" speed="30.00" length="21.12" shape="641.57,610.99,-0.17 641.07,617.27,-0.07 639.97,621.58,0.00 638.87,625.80,0.08 638.37,631.79,0.17"/>
        <lane id=":TL_9_1" index="1" speed="30.00" length="21.12" shape="638.37,610.99,-0.17 637.87,617.27,-0.07 636.77,621.58,0.00 635.67,625.80,0.08 635.17,631.79,0.17"/>
    </edge>
    <edge id=":TL_11" function="internal">
        <lane id=":TL_11_0" index="0" speed="9.84" length="5.50" shape="635.17,610.99,-0.17 634.22,616.24,-0.13 634.12,616.37,-0.13"/>
    </edge>
    <edge id=":TL_18" function="internal">
        <lane id=":TL_18_0" index="0" speed="9.84" length="16.50" shape="634.12,616.37,-0.13 631.37,619.99,-0.09 626.62,622.24,-0.05 619.97,622.99"/>
    </edge>
    <edge id=":TL_12" function="internal">
        <lane id=":TL_12_0" index="0" speed="7.33" length="11.73" shape="619.97,616.59 623.82,616.24,-0.06 626.57,615.19,-0.10 628.22,613.44,-0.13 628.77,610.99,-0.17"/>
    </edge>
    <edge id=":TL_13" function="internal">
        <lane id=":TL_13_0" index="0" speed="25.00" length="27.20" shape="619.97,616.59 647.17,616.59,-0.20"/>
        <lane id=":TL_13_1" index="1" speed="25.00" length="27.20" shape="619.97,619.79 647.17,619.79,-0.20"/>
    </edge>
    <edge id=":TL_15" function="internal">
        <lane id=":TL_15_0" index="0" speed="9.84" length="6.30" shape="619.97,619.79 626.22,620.49,0.05"/>
    </edge>
    <edge id=":TL_19" function="internal">
        <lane id=":TL_19_0" index="0" speed="9.84" length="15.70" shape="626.22,620.49,0.05 626.62,620.54,0.05 631.37,622.79,0.09 634.22,626.54,0.13 635.17,631.79,0.17"/>
    </edge>

    <edge id="A2AA" from="A" to="AA" priority="-1">
        <lane id="A2AA_0" index="0" speed="30.00" length="307.11" shape="619.97,950.10,5.38 312.86,950.10,5.38"/>
        <lane id="A2AA_1" index="1" speed="30.00" length="307.11" shape="619.97,946.90,5.38 312.86,946.90,5.38"/>
        <lane id="A2AA_2" index="2" speed="30.00" length="307.11" shape="619.97,943.70,5.38 312.86,943.70,5.38"/>
    </edge>
    <edge id="A2AB" from="A" to="AB" priority="-1">
        <lane id="A2AB_0" index="0" speed="30.00" length="307.11" shape="641.57,955.70,5.38 641.57,1262.81,5.38"/>
        <lane id="A2AB_1" index="1" speed="30.00" length="307.11" shape="638.37,955.70,5.38 638.37,1262.81,5.38"/>
        <lane id="A2AB_2" index="2" speed="30.00" length="307.11" shape="635.17,955.70,5.38 635.17,1262.81,5.38"/>
    </edge>
    <edge id="A2AC" from="A" to="AC" priority="-1">
        <lane id="A2AC_0" index="0" speed="30.00" length="307.11" shape="647.17,934.10,5.38 954.28,934.10,5.38"/>
        <lane id="A2AC_1" index="1" speed="30.00" length="307.11" shape="647.17,937.30,5.38 954.28,937.30,5.38"/>
        <lane id="A2AC_2" index="2" speed="30.00" length="307.11" shape="647.17,940.50,5.38 954.28,940.50,5.38"/>
    </edge>
    <edge id="A2TL" from="A" to="TL" priority="-1">
        <lane id="A2TL_0" index="0" speed="30.00" length="296.76" shape="625.57,928.50,5.38 625.57,631.79,0.18"/>
        <lane id="A2TL_1" index="1" speed="30.00" length="296.76" shape="628.77,928.50,5.38 628.77,631.79,0.18"/>
        <lane id="A2TL_2" index="2" speed="30.00" length="296.76" shape="631.97,928.50,5.38 631.97,631.79,0.18"/>
    </edge>
    <edge id="AA2A" from="AA" to="A" priority="-1">
        <lane id="AA2A_0" index="0" speed="30.00" length="307.11" shape="312.86,937.30,5.38 619.97,937.30,5.38"/>
        <lane id="AA2A_1" index="1" speed="30.00" length="307.11" shape="312.86,940.50,5.38 619.97,940.50,5.38"/>
    </edge>
    <edge id="AB2A" from="AB" to="A" priority="-1">
        <lane id="AB2A_0" index="0" speed="30.00" length="307.11" shape="628.77,1262.81,5.38 628.77,955.70,5.38"/>
        <lane id="AB2A_1" index="1" speed="30.00" length="307.11" shape="631.97,1262.81,5.38 631.97,955.70,5.38"/>
    </edge>
    <edge id="AC2A" from="AC" to="A" priority="-1">
        <lane id="AC2A_0" index="0" speed="30.00" length="307.11" shape="954.28,946.90,5.38 647.17,946.90,5.38"/>
        <lane id="AC2A_1" index="1" speed="30.00" length="307.11" shape="954.28,943.70,5.38 647.17,943.70,5.38"/>
    </edge>
    <edge id="B2BA" from="B" to="BA" priority="-1">
        <lane id="B2BA_0" index="0" speed="25.00" length="307.81" shape="956.57,631.79,-4.66 956.57,939.59,-4.66"/>
        <lane id="B2BA_1" index="1" speed="25.00" length="307.81" shape="953.37,631.79,-4.66 953.37,939.59,-4.66"/>
    </edge>
    <edge id="B2BB" from="B" to="BB" priority="-1">
        <lane id="B2BB_0" index="0" speed="25.00" length="307.81" shape="962.17,616.59,-4.66 1269.98,616.59,-4.66"/>
        <lane id="B2BB_1" index="1" speed="25.00" length="307.81" shape="962.17,619.79,-4.66 1269.98,619.79,-4.66"/>
    </edge>
    <edge id="B2BC" from="B" to="BC" priority="-1">
        <lane id="B2BC_0" index="0" speed="25.00" length="307.81" shape="946.97,610.99,-4.66 946.97,303.18,-4.66"/>
        <lane id="B2BC_1" index="1" speed="25.00" length="307.81" shape="950.17,610.99,-4.66 950.17,303.18,-4.66"/>
    </edge>
    <edge id="B2TL" from="B" to="TL" priority="-1">
        <lane id="B2TL_0" index="0" speed="25.00" length="294.24" shape="941.37,626.19,-4.50 647.17,626.19,-0.20"/>
        <lane id="B2TL_1" index="1" speed="25.00" length="294.24" shape="941.37,622.99,-4.50 647.17,622.99,-0.20"/>
    </edge>
    <edge id="BA2B" from="BA" to="B" priority="-1">
        <lane id="BA2B_0" index="0" speed="25.00" length="307.81" shape="946.97,939.59,-4.66 946.97,631.79,-4.66"/>
        <lane id="BA2B_1" index="1" speed="25.00" length="307.81" shape="950.17,939.59,-4.66 950.17,631.79,-4.66"/>
    </edge>
    <edge id="BB2B" from="BB" to="B" priority="-1">
        <lane id="BB2B_0" index="0" speed="25.00" length="307.81" shape="1269.98,626.19,-4.66 962.17,626.19,-4.66"/>
        <lane id="BB2B_1" index="1" speed="25.00" length="307.81" shape="1269.98,622.99,-4.66 962.17,622.99,-4.66"/>
    </edge>
    <edge id="BC2B" from="BC" to="B" priority="-1">
        <lane id="BC2B_0" index="0" speed="25.00" length="307.81" shape="956.57,303.18,-4.66 956.57,610.99,-4.66"/>
        <lane id="BC2B_1" index="1" speed="25.00" length="307.81" shape="953.37,303.18,-4.66 953.37,610.99,-4.66"/>
    </edge>
    <edge id="C2CA" from="C" to="CA" priority="-1">
        <lane id="C2CA_0" index="0" speed="30.00" length="300.29" shape="643.97,305.89,-5.11 944.26,305.89,-5.11"/>
        <lane id="C2CA_1" index="1" speed="30.00" length="300.29" shape="643.97,309.09,-5.11 944.26,309.09,-5.11"/>
    </edge>
    <edge id="C2CB" from="C" to="CB" priority="-1">
        <lane id="C2CB_0" index="0" speed="30.00" length="300.29" shape="628.77,300.29,-5.11 628.77,0.00,-5.11"/>
        <lane id="C2CB_1" index="1" speed="30.00" length="300.29" shape="631.97,300.29,-5.11 631.97,0.00,-5.11"/>
    </edge>
    <edge id="C2CC" from="C" to="CC" priority="-1">
        <lane id="C2CC_0" index="0" speed="30.00" length="300.29" shape="623.17,315.49,-5.11 322.87,315.49,-5.11"/>
        <lane id="C2CC_1" index="1" speed="30.00" length="300.29" shape="623.17,312.29,-5.11 322.87,312.29,-5.11"/>
    </edge>
    <edge id="C2TL" from="C" to="C_intern" priority="-1">
        <lane id="C2TL_0" index="0" speed="30.00" length="246.33" shape="638.37,321.09,-4.94 638.37,567.39,-0.89"/>
        <lane id="C2TL_1" index="1" speed="30.00" length="246.33" shape="635.17,321.09,-4.94 635.17,567.39,-0.89"/>
    </edge>
    <edge id="C2TL_intern" from="C_intern" to="TL" priority="-1">
        <lane id="C2TL_intern_0" index="0" speed="30.00" length="35.60" shape="641.57,575.39,-0.76 641.57,610.99,-0.17"/>
        <lane id="C2TL_intern_1" index="1" speed="30.00" length="35.60" shape="638.37,575.39,-0.76 638.37,610.99,-0.17"/>
        <lane id="C2TL_intern_2" index="2" speed="30.00" length="35.60" shape="635.17,575.39,-0.76 635.17,610.99,-0.17"/>
    </edge>
    <edge id="CA2C" from="CA" to="C" priority="-1">
        <lane id="CA2C_0" index="0" speed="30.00" length="300.29" shape="944.26,315.49,-5.11 643.97,315.49,-5.11"/>
        <lane id="CA2C_1" index="1" speed="30.00" length="300.29" shape="944.26,312.29,-5.11 643.97,312.29,-5.11"/>
    </edge>
    <edge id="CB2C" from="CB" to="C" priority="-1">
        <lane id="CB2C_0" index="0" speed="30.00" length="300.29" shape="638.37,0.00,-5.11 638.37,300.29,-5.11"/>
        <lane id="CB2C_1" index="1" speed="30.00" length="300.29" shape="635.17,0.00,-5.11 635.17,300.29,-5.11"/>
    </edge>