<?xml version="1.0" encoding="UTF-8"?>

<!-- generated on 2022-10-11 17:10:53 by Eclipse SUMO netconvert Version 1.14.1
<configuration xmlns:xsi="http://www.w3.org/2001/XMLSchema-instance" xsi:noNamespaceSchemaLocation="http://sumo.dlr.de/xsd/netconvertConfiguration.xsd">

    <input>
        <node-files value="../data/salt-lake-city/nodes.nod.xml"/>
        <edge-files value="../data/salt-lake-city/edges.edg.xml"/>
        <connection-files value="../data/salt-lake-city/connections.con.xml"/>
    </input>

    <output>
        <output-file value="../data/salt-lake-city/sumo/net/52.net.xml"/>
    </output>

    <tls_building>
        <tls.minor-left.max-speed value="1"/>
    </tls_building>

    <report>
        <verbose value="true"/>
    </report>

</configuration>
-->

<net version="1.9" junctionCornerDetail="5" limitTurnSpeed="5.50" xmlns:xsi="http://www.w3.org/2001/XMLSchema-instance" xsi:noNamespaceSchemaLocation="http://sumo.dlr.de/xsd/net_file.xsd">

    <location netOffset="609.74,642.42" convBoundary="0.00,0.00,1252.51,1260.15" origBoundary="-609.74,-642.42,642.77,617.74" projParameter="!"/>

    <edge id=":A_0" function="internal">
        <lane id=":A_0_0" index="0" speed="6.51" length="9.03" shape="608.14,958.48,9.70 607.79,956.03,9.70 606.74,954.28,9.70 604.99,953.23,9.70 602.54,952.88,9.70"/>
    </edge>
    <edge id=":A_1" function="internal">
        <lane id=":A_1_0" index="0" speed="25.00" length="14.40" shape="608.14,958.48,9.70 608.14,944.08,9.70"/>
    </edge>
    <edge id=":A_2" function="internal">
        <lane id=":A_2_0" index="0" speed="6.51" length="9.03" shape="616.94,952.88,9.70 614.49,953.23,9.70 612.74,954.28,9.70 611.69,956.03,9.70 611.34,958.48,9.70"/>
    </edge>
    <edge id=":A_3" function="internal">
        <lane id=":A_3_0" index="0" speed="25.00" length="14.40" shape="616.94,952.88,9.70 602.54,952.88,9.70"/>
    </edge>
    <edge id=":A_4" function="internal">
        <lane id=":A_4_0" index="0" speed="6.51" length="9.03" shape="611.34,944.08,9.70 611.69,946.53,9.70 612.74,948.28,9.70 614.49,949.33,9.70 616.94,949.68,9.70"/>
    </edge>
    <edge id=":A_5" function="internal">
        <lane id=":A_5_0" index="0" speed="25.00" length="14.40" shape="611.34,944.08,9.70 611.34,958.48,9.70"/>
    </edge>
    <edge id=":A_6" function="internal">
        <lane id=":A_6_0" index="0" speed="6.51" length="9.03" shape="602.54,949.68,9.70 604.99,949.33,9.70 606.74,948.28,9.70 607.79,946.53,9.70 608.14,944.08,9.70"/>
    </edge>
    <edge id=":A_7" function="internal">
        <lane id=":A_7_0" index="0" speed="25.00" length="14.40" shape="602.54,949.68,9.70 616.94,949.68,9.70"/>
    </edge>
    <edge id=":AA_0" function="internal">
        <lane id=":AA_0_0" index="0" speed="3.65" length="4.67" shape="300.87,952.88,9.70 299.67,952.08,9.70 299.27,951.28,9.70 299.67,950.48,9.70 300.87,949.68,9.70"/>
    </edge>
    <edge id=":AB_0" function="internal">
        <lane id=":AB_0_0" index="0" speed="3.65" length="4.67" shape="611.34,1260.15,9.70 610.54,1261.35,9.70 609.74,1261.75,9.70 608.94,1261.35,9.70 608.14,1260.15,9.70"/>
    </edge>
    <edge id=":AC_0" function="internal">
        <lane id=":AC_0_0" index="0" speed="3.65" length="4.67" shape="918.60,949.68,9.70 919.80,950.48,9.70 920.20,951.28,9.70 919.80,952.08,9.70 918.60,952.88,9.70"/>
    </edge>
    <edge id=":B_0" function="internal">
        <lane id=":B_0_0" index="0" speed="6.51" length="9.03" shape="926.32,652.82,-12.63 925.97,650.37,-12.63 924.92,648.62,-12.63 923.17,647.57,-12.63 920.72,647.22,-12.63"/>
    </edge>
    <edge id=":B_1" function="internal">
        <lane id=":B_1_0" index="0" speed="30.00" length="20.80" shape="926.32,652.82,-12.63 926.32,632.02,-12.63"/>
        <lane id=":B_1_1" index="1" speed="30.00" length="20.80" shape="929.52,652.82,-12.63 929.52,632.02,-12.63"/>
    </edge>
    <edge id=":B_3" function="internal">
        <lane id=":B_3_0" index="0" speed="9.26" length="5.01" shape="929.52,652.82,-12.63 930.23,647.85,-12.63"/>
    </edge>
    <edge id=":B_16" function="internal">
        <lane id=":B_16_0" index="0" speed="9.26" length="14.34" shape="930.23,647.85,-12.63 930.27,647.57,-12.63 932.52,643.82,-12.63 936.27,641.57,-12.63 941.52,640.82,-12.63"/>
    </edge>
    <edge id=":B_4" function="internal">
        <lane id=":B_4_0" index="0" speed="6.51" length="9.03" shape="941.52,647.22,-12.63 939.07,647.57,-12.63 937.32,648.62,-12.63 936.27,650.37,-12.63 935.92,652.82,-12.63"/>
    </edge>
    <edge id=":B_5" function="internal">
        <lane id=":B_5_0" index="0" speed="30.00" length="20.80" shape="941.52,647.22,-12.63 920.72,647.22,-12.63"/>
        <lane id=":B_5_1" index="1" speed="30.00" length="20.80" shape="941.52,644.02,-12.63 920.72,644.02,-12.63"/>
    </edge>
    <edge id=":B_7" function="internal">
        <lane id=":B_7_0" index="0" speed="9.26" length="5.01" shape="941.52,644.02,-12.63 936.56,643.31,-12.63"/>
    </edge>
    <edge id=":B_17" function="internal">
        <lane id=":B_17_0" index="0" speed="9.26" length="14.34" shape="936.56,643.31,-12.63 936.27,643.27,-12.63 932.52,641.02,-12.63 930.27,637.27,-12.63 929.52,632.02,-12.63"/>
    </edge>
    <edge id=":B_8" function="internal">
        <lane id=":B_8_0" index="0" speed="6.51" length="9.03" shape="935.92,632.02,-12.63 936.27,634.47,-12.63 937.32,636.22,-12.63 939.07,637.27,-12.63 941.52,637.62,-12.63"/>
    </edge>
    <edge id=":B_9" function="internal">
        <lane id=":B_9_0" index="0" speed="30.00" length="20.80" shape="935.92,632.02,-12.63 935.92,652.82,-12.63"/>
        <lane id=":B_9_1" index="1" speed="30.00" length="20.80" shape="932.72,632.02,-12.63 932.72,652.82,-12.63"/>
    </edge>
    <edge id=":B_11" function="internal">
        <lane id=":B_11_0" index="0" speed="9.26" length="5.01" shape="932.72,632.02,-12.63 932.01,636.98,-12.63"/>
    </edge>
    <edge id=":B_18" function="internal">
        <lane id=":B_18_0" index="0" speed="9.26" length="14.34" shape="932.01,636.98,-12.63 931.97,637.27,-12.63 929.72,641.02,-12.63 925.97,643.27,-12.63 920.72,644.02,-12.63"/>
    </edge>
    <edge id=":B_12" function="internal">
        <lane id=":B_12_0" index="0" speed="6.51" length="9.03" shape="920.72,637.62,-12.63 923.17,637.27,-12.63 924.92,636.22,-12.63 925.97,634.47,-12.63 926.32,632.02,-12.63"/>
    </edge>
    <edge id=":B_13" function="internal">
        <lane id=":B_13_0" index="0" speed="30.00" length="20.80" shape="920.72,637.62,-12.63 941.52,637.62,-12.63"/>
        <lane id=":B_13_1" index="1" speed="30.00" length="20.80" shape="920.72,640.82,-12.63 941.52,640.82,-12.63"/>
    </edge>
    <edge id=":B_15" function="internal">
        <lane id=":B_15_0" index="0" speed="9.26" length="5.01" shape="920.72,640.82,-12.63 925.69,641.52,-12.63"/>
    </edge>
    <edge id=":B_19" function="internal">
        <lane id=":B_19_0" index="0" speed="9.26" length="14.34" shape="925.69,641.52,-12.63 925.97,641.57,-12.63 929.72,643.82,-12.63 931.97,647.57,-12.63 932.72,652.82,-12.63"/>
    </edge>
    <edge id=":BA_0" function="internal">
        <lane id=":BA_0_0" index="0" speed="3.65" length="4.67" shape="932.72,963.80,-12.63 931.92,965.00,-12.63 931.12,965.40,-12.63 930.32,965.00,-12.63 929.52,963.80,-12.63"/>
    </edge>
    <edge id=":BB_0" function="internal">
        <lane id=":BB_0_0" index="0" speed="3.65" length="4.67" shape="1252.51,640.82,-12.63 1253.71,641.62,-12.63 1254.11,642.42,-12.63 1253.71,643.22,-12.63 1252.51,644.02,-12.63"/>
    </edge>
    <edge id=":BC_0" function="internal">
        <lane id=":BC_0_0" index="0" speed="3.65" length="4.67" shape="929.52,321.03,-12.63 930.32,319.83,-12.63 931.12,319.43,-12.63 931.92,319.83,-12.63 932.72,321.03,-12.63"/>
    </edge>
    <edge id=":C_0" function="internal">
        <lane id=":C_0_0" index="0" speed="6.51" length="9.03" shape="608.14,328.41,10.08 607.79,325.96,10.08 606.74,324.21,10.08 604.99,323.16,10.08 602.54,322.81,10.08"/>
    </edge>
    <edge id=":C_1" function="internal">
        <lane id=":C_1_0" index="0" speed="25.00" length="14.40" shape="608.14,328.41,10.08 608.14,314.01,10.08"/>
    </edge>
    <edge id=":C_2" function="internal">
        <lane id=":C_2_0" index="0" speed="6.51" length="9.03" shape="616.94,322.81,10.08 614.49,323.16,10.08 612.74,324.21,10.08 611.69,325.96,10.08 611.34,328.41,10.08"/>
    </edge>
    <edge id=":C_3" function="internal">
        <lane id=":C_3_0" index="0" speed="25.00" length="14.40" shape="616.94,322.81,10.08 602.54,322.81,10.08"/>
    </edge>
    <edge id=":C_4" function="internal">
        <lane id=":C_4_0" index="0" speed="6.51" length="9.03" shape="611.34,314.01,10.08 611.69,316.46,10.08 612.74,318.21,10.08 614.49,319.26,10.08 616.94,319.61,10.08"/>
    </edge>
    <edge id=":C_5" function="internal">
        <lane id=":C_5_0" index="0" speed="25.00" length="14.40" shape="611.34,314.01,10.08 611.34,328.41,10.08"/>
    </edge>
    <edge id=":C_6" function="internal">
        <lane id=":C_6_0" index="0" speed="6.51" length="9.03" shape="602.54,319.61,10.08 604.99,319.26,10.08 606.74,318.21,10.08 607.79,316.46,10.08 608.14,314.01,10.08"/>
    </edge>
    <edge id=":C_7" function="internal">
        <lane id=":C_7_0" index="0" speed="25.00" length="14.40" shape="602.54,319.61,10.08 616.94,319.61,10.08"/>
    </edge>
    <edge id=":CA_0" function="internal">
        <lane id=":CA_0_0" index="0" speed="3.65" length="4.67" shape="930.94,319.61,10.08 932.14,320.41,10.08 932.54,321.21,10.08 932.14,322.01,10.08 930.94,322.81,10.08"/>
    </edge>
    <edge id=":CB_0" function="internal">
        <lane id=":CB_0_0" index="0" speed="3.65" length="4.67" shape="608.14,-0.00,10.08 608.94,-1.20,10.08 609.74,-1.60,10.08 610.54,-1.20,10.08 611.34,-0.00,10.08"/>
    </edge>
    <edge id=":CC_0" function="internal">
        <lane id=":CC_0_0" index="0" speed="3.65" length="4.67" shape="288.53,322.81,10.08 287.33,322.01,10.08 286.93,321.21,10.08 287.33,320.41,10.08 288.53,319.61,10.08"/>
    </edge>
    <edge id=":D_0" function="internal">
        <lane id=":D_0_0" index="0" speed="6.51" length="9.03" shape="300.07,652.82,-11.98 299.72,650.37,-11.98 298.67,648.62,-11.98 296.92,647.57,-11.98 294.47,647.22,-11.98"/>
    </edge>
    <edge id=":D_1" function="internal">
        <lane id=":D_1_0" index="0" speed="30.00" length="20.80" shape="300.07,652.82,-11.98 300.07,632.02,-11.98"/>
        <lane id=":D_1_1" index="1" speed="30.00" length="20.80" shape="303.27,652.82,-11.98 303.27,632.02,-11.98"/>
    </edge>
    <edge id=":D_3" function="internal">
        <lane id=":D_3_0" index="0" speed="9.26" length="5.01" shape="303.27,652.82,-11.98 303.98,647.85,-11.98"/>
    </edge>
    <edge id=":D_16" function="internal">
        <lane id=":D_16_0" index="0" speed="9.26" length="14.34" shape="303.98,647.85,-11.98 304.02,647.57,-11.98 306.27,643.82,-11.98 310.02,641.57,-11.98 315.27,640.82,-11.98"/>
    </edge>
    <edge id=":D_4" function="internal">
        <lane id=":D_4_0" index="0" speed="6.51" length="9.03" shape="315.27,647.22,-11.98 312.82,647.57,-11.98 311.07,648.62,-11.98 310.02,650.37,-11.98 309.67,652.82,-11.98"/>
    </edge>
    <edge id=":D_5" function="internal">
        <lane id=":D_5_0" index="0" speed="30.00" length="20.80" shape="315.27,647.22,-11.98 294.47,647.22,-11.98"/>
        <lane id=":D_5_1" index="1" speed="30.00" length="20.80" shape="315.27,644.02,-11.98 294.47,644.02,-11.98"/>
    </edge>
    <edge id=":D_7" function="internal">
        <lane id=":D_7_0" index="0" speed="9.26" length="5.01" shape="315.27,644.02,-11.98 310.30,643.31,-11.98"/>
    </edge>
    <edge id=":D_17" function="internal">
        <lane id=":D_17_0" index="0" speed="9.26" length="14.34" shape="310.30,643.31,-11.98 310.02,643.27,-11.98 306.27,641.02,-11.98 304.02,637.27,-11.98 303.27,632.02,-11.98"/>
    </edge>
    <edge id=":D_8" function="internal">
        <lane id=":D_8_0" index="0" speed="6.51" length="9.03" shape="309.67,632.02,-11.98 310.02,634.47,-11.98 311.07,636.22,-11.98 312.82,637.27,-11.98 315.27,637.62,-11.98"/>
    </edge>
    <edge id=":D_9" function="internal">
        <lane id=":D_9_0" index="0" speed="30.00" length="20.80" shape="309.67,632.02,-11.98 309.67,652.82,-11.98"/>
        <lane id=":D_9_1" index="1" speed="30.00" length="20.80" shape="306.47,632.02,-11.98 306.47,652.82,-11.98"/>
    </edge>
    <edge id=":D_11" function="internal">
        <lane id=":D_11_0" index="0" speed="9.26" length="5.01" shape="306.47,632.02,-11.98 305.76,636.98,-11.98"/>
    </edge>
    <edge id=":D_18" function="internal">
        <lane id=":D_18_0" index="0" speed="9.26" length="14.34" shape="305.76,636.98,-11.98 305.72,637.27,-11.98 303.47,641.02,-11.98 299.72,643.27,-11.98 294.47,644.02,-11.98"/>
    </edge>
    <edge id=":D_12" function="internal">
        <lane id=":D_12_0" index="0" speed="6.51" length="9.03" shape="294.47,637.62,-11.98 296.92,637.27,-11.98 298.67,636.22,-11.98 299.72,634.47,-11.98 300.07,632.02,-11.98"/>
    </edge>
    <edge id=":D_13" function="internal">
        <lane id=":D_13_0" index="0" speed="30.00" length="20.80" shape="294.47,637.62,-11.98 315.27,637.62,-11.98"/>
        <lane id=":D_13_1" index="1" speed="30.00" length="20.80" shape="294.47,640.82,-11.98 315.27,640.82,-11.98"/>
    </edge>
    <edge id=":D_15" function="internal">
        <lane id=":D_15_0" index="0" speed="9.26" length="5.01" shape="294.47,640.82,-11.98 299.43,641.52,-11.98"/>
    </edge>
    <edge id=":D_19" function="internal">
        <lane id=":D_19_0" index="0" speed="9.26" length="14.34" shape="299.43,641.52,-11.98 299.72,641.57,-11.98 303.47,643.82,-11.98 305.72,647.57,-11.98 306.47,652.82,-11.98"/>
    </edge>
    <edge id=":DA_0" function="internal">
        <lane id=":DA_0_0" index="0" speed="3.65" length="4.67" shape="303.27,337.55,-11.98 304.07,336.35,-11.98 304.87,335.95,-11.98 305.67,336.35,-11.98 306.47,337.55,-11.98"/>
    </edge>
    <edge id=":DB_0" function="internal">
        <lane id=":DB_0_0" index="0" speed="3.65" length="4.67" shape="-0.00,644.02,-11.98 -1.20,643.22,-11.98 -1.60,642.42,-11.98 -1.20,641.62,-11.98 0.00,640.82,-11.98"/>
    </edge>
    <edge id=":DC_0" function="internal">
        <lane id=":DC_0_0" index="0" speed="3.65" length="4.67" shape="306.47,947.28,-11.98 305.67,948.48,-11.98 304.87,948.88,-11.98 304.07,948.48,-11.98 303.27,947.28,-11.98"/>
    </edge>
    <edge id=":TL_0" function="internal">
        <lane id=":TL_0_0" index="0" speed="6.51" length="9.03" shape="608.14,652.82 607.79,650.37 606.74,648.62 604.99,647.57 602.54,647.22"/>
    </edge>
    <edge id=":TL_1" function="internal">
        <lane id=":TL_1_0" index="0" speed="25.00" length="20.80" shape="608.14,652.82 608.14,632.02"/>
    </edge>
    <edge id=":TL_2" function="internal">
        <lane id=":TL_2_0" index="0" speed="6.51" length="9.03" shape="616.94,647.22 614.49,647.57 612.74,648.62 611.69,650.37 611.34,652.82"/>
    </edge>
    <edge id=":TL_3" function="internal">
        <lane id=":TL_3_0" index="0" speed="30.00" length="14.40" shape="616.94,647.22 602.54,647.22"/>
        <lane id=":TL_3_1" index="1" speed="30.00" length="14.40" shape="616.94,644.02 602.54,644.02"/>
    </edge>
    <edge id=":TL_5" function="internal">
        <lane id=":TL_5_0" index="0" speed="8.67" length="3.71" shape="616.94,644.02 613.29,643.31"/>
    </edge>
    <edge id=":TL_12" function="internal">
        <lane id=":TL_12_0" index="0" speed="8.67" length="13.14" shape="613.29,643.31 613.09,643.27 610.34,641.02 608.69,637.27 608.14,632.02"/>
    </edge>
    <edge id=":TL_6" function="internal">
        <lane id=":TL_6_0" index="0" speed="6.51" length="9.03" shape="611.34,632.02 611.69,634.47 612.74,636.22 614.49,637.27 616.94,637.62"/>
    </edge>
    <edge id=":TL_7" function="internal">
        <lane id=":TL_7_0" index="0" speed="25.00" length="20.80" shape="611.34,632.02 611.34,652.82"/>
    </edge>
    <edge id=":TL_8" function="internal">
        <lane id=":TL_8_0" index="0" speed="6.51" length="9.03" shape="602.54,637.62 604.99,637.27 606.74,636.22 607.79,634.47 608.14,632.02"/>
    </edge>
    <edge id=":TL_9" function="internal">
        <lane id=":TL_9_0" index="0" speed="30.00" length="14.40" shape="602.54,637.62 616.94,637.62"/>
        <lane id=":TL_9_1" index="1" speed="30.00" length="14.40" shape="602.54,640.82 616.94,640.82"/>
    </edge>
    <edge id=":TL_11" function="internal">
        <lane id=":TL_11_0" index="0" speed="8.67" length="3.71" shape="602.54,640.82 606.18,641.53"/>
    </edge>
    <edge id=":TL_13" function="internal">
        <lane id=":TL_13_0" index="0" speed="8.67" length="13.14" shape="606.18,641.53 606.39,641.57 609.14,643.82 610.79,647.57 611.34,652.82"/>
    </edge>

    <edge id="A2AA" from="A" to="AA" priority="-1">
        <lane id="A2AA_0" index="0" speed="25.00" length="301.67" shape="602.54,952.88,9.70 300.87,952.88,9.70"/>
    </edge>
    <edge id="A2AB" from="A" to="AB" priority="-1">
        <lane id="A2AB_0" index="0" speed="25.00" length="301.67" shape="611.34,958.48,9.70 611.34,1260.15,9.70"/>
    </edge>
    <edge id="A2AC" from="A" to="AC" priority="-1">
        <lane id="A2AC_0" index="0" speed="25.00" length="301.67" shape="616.94,949.68,9.70 918.60,949.68,9.70"/>
    </edge>
    <edge id="A2TL" from="A" to="TL" priority="-1">
        <lane id="A2TL_0" index="0" speed="25.00" length="291.43" shape="608.14,944.08,9.70 608.14,652.82"/>
    </edge>
    <edge id="AA2A" from="AA" to="A" priority="-1">
        <lane id="AA2A_0" index="0" speed="25.00" length="301.67" shape="300.87,949.68,9.70 602.54,949.68,9.70"/>
    </edge>
    <edge id="AB2A" from="AB" to="A" priority="-1">
        <lane id="AB2A_0" index="0" speed="25.00" length="301.67" shape="608.14,1260.15,9.70 608.14,958.48,9.70"/>
    </edge>
    <edge id="AC2A" from="AC" to="A" priority="-1">
        <lane id="AC2A_0" index="0" speed="25.00" length="301.67" shape="918.60,952.88,9.70 616.94,952.88,9.70"/>
    </edge>
    <edge id="B2BA" from="B" to="BA" priority="-1">
        <lane id="B2BA_0" index="0" speed="30.00" length="310.99" shape="935.92,652.82,-12.63 935.92,963.80,-12.63"/>
        <lane id="B2BA_1" index="1" speed="30.00" length="310.99" shape="932.72,652.82,-12.63 932.72,963.80,-12.63"/>
    </edge>
    <edge id="B2BB" from="B" to="BB" priority="-1">
        <lane id="B2BB_0" index="0" speed="30.00" length="310.99" shape="941.52,637.62,-12.63 1252.51,637.62,-12.63"/>
        <lane id="B2BB_1" index="1" speed="30.00" length="310.99" shape="941.52,640.82,-12.63 1252.51,640.82,-12.63"/>
    </edge>
    <edge id="B2BC" from="B" to="BC" priority="-1">
        <lane id="B2BC_0" index="0" speed="30.00" length="310.99" shape="926.32,632.02,-12.63 926.32,321.03,-12.63"/>
        <lane id="B2BC_1" index="1" speed="30.00" length="310.99" shape="929.52,632.02,-12.63 929.52,321.03,-12.63"/>
    </edge>
    <edge id="B2TL" from="B" to="TL" priority="-1">
        <lane id="B2TL_0" index="0" speed="30.00" length="304.05" shape="920.72,647.22,-12.63 616.94,647.22"/>
        <lane id="B2TL_1" index="1" speed="30.00" length="304.05" shape="920.72,644.02,-12.63 616.94,644.02"/>
    </edge>
    <edge id="BA2B" from="BA" to="B" priority="-1">
        <lane id="BA2B_0" index="0" speed="30.00" length="310.99" shape="926.32,963.80,-12.63 926.32,652.82,-12.63"/>
        <lane id="BA2B_1" index="1" speed="30.00" length="310.99" shape="929.52,963.80,-12.63 929.52,652.82,-12.63"/>
    </edge>
    <edge id="BB2B" from="BB" to="B" priority="-1">
        <lane id="BB2B_0" index="0" speed="30.00" length="310.99" shape="1252.51,647.22,-12.63 941.52,647.22,-12.63"/>
        <lane id="BB2B_1" index="1" speed="30.00" length="310.99" shape="1252.51,644.02,-12.63 941.52,644.02,-12.63"/>
    </edge>
    <edge id="BC2B" from="BC" to="B" priority="-1">
        <lane id="BC2B_0" index="0" speed="30.00" length="310.99" shape="935.92,321.03,-12.63 935.92,632.02,-12.63"/>
        <lane id="BC2B_1" index="1" speed="30.00" length="310.99" shape="932.72,321.03,-12.63 932.72,632.02,-12.63"/>
    </edge>
    <edge id="C2CA" from="C" to="CA" priority="-1">
        <lane id="C2CA_0" index="0" speed="25.00" length="314.01" shape="616.94,319.61,10.08 930.94,319.61,10.08"/>
    </edge>
    <edge id="C2CB" from="C" to="CB" priority="-1">
        <lane id="C2CB_0" index="0" speed="25.00" length="314.01" shape="608.14,314.01,10.08 608.14,-0.00,10.08"/>
    </edge>
    <edge id="C2CC" from="C" to="CC" priority="-1">
        <lane id="C2CC_0" index="0" speed="25.00" length="314.01" shape="602.54,322.81,10.08 288.53,322.81,10.08"/>
    </edge>
    <edge id="C2TL" from="C" to="TL" priority="-1">
        <lane id="C2TL_0" index="0" speed="25.00" length="303.78" shape="611.34,328.41,10.08 611.34,632.02"/>
    </edge>
    <edge id="CA2C" from="CA" to="C" priority="-1">
        <lane id="CA2C_0" index="0" speed="25.00" length="314.01" shape="930.94,322.81,10.08 616.94,322.81,10.08"/>
    </edge>
    <edge id="CB2C" from="CB" to="C" priority="-1">
        <lane id="CB2C_0" index="0" speed="25.00" length="314.01" shape="611.34,-0.00,10.08 611.34,314.01,10.08"/>
    </edge>
    <edge id="CC2C" from="CC" to="C" priority="-1">
        <lane id="CC2C_0" index="0" speed="25.00" length="314.01" shape="288.53,319.61,10.08 602.54,319.61,10.08"/>
    </edge>
    <edge id="D2DA" from="D" to="DA" priority="-1">
        <lane id="D2DA_0" index="0" speed="30.00" length="294.47" shape="300.07,632.02,-11.98 300.07,337.55,-11.98"/>
        <lane id="D2DA_1" index="1" speed="30.00" length="294.47" shape="303.27,632.02,-11.98 303.27,337.55,-11.98"/>
    </edge>
    <edge id="D2DB" from="D" to="DB" priority="-1">
        <lane id="D2DB_0" index="0" speed="30.00" length="294.47" shape="294.47,647.22,-11.98 -0.00,647.22,-11.98"/>
        <lane id="D2DB_1" index="1" speed="30.00" length="294.47" shape="294.47,644.02,-11.98 -0.00,644.02,-11.98"/>
    </edge>
    <edge id="D2DC" from="D" to="DC" priority="-1">
        <lane id="D2DC_0" index="0" speed="30.00" length="294.47" shape="309.67,652.82,-11.98 309.67,947.28,-11.98"/>
        <lane id="D2DC_1" index="1" speed="30.00" length="294.47" shape="306.47,652.82,-11.98 306.47,947.28,-11.98"/>
    </edge>
    <edge id="D2TL" from="D" to="TL" priority="-1">
        <lane id="D2TL_0" index="0" speed="30.00" length="287.52" shape="315.27,637.62,-11.98 602.54,637.62"/>
        <lane id="D2TL_1" index="1" speed="30.00" length="287.52" shape="315.27,640.82,-11.98 602.54,640.82"/>
    </edge>
    <edge id="DA2D" from="DA" to="D" priority="-1">
        <lane id="DA2D_0" index="0" speed="30.00" length="294.47" shape="309.67,337.55,-11.98 309.67,632.02,-11.98"/>
        <lane id="DA2D_1" index="1" speed="30.00" length="294.47" shape="306.47,337.55,-11.98 306.47,632.02,-11.98"/>
    </edge>
    <edge id="DB2D" from="DB" to="D" priority="-1">
        <lane id="DB2D_0" index="0" speed="30.00" length="294.47" shape="0.00,637.62,-11.98 294.47,637.62,-11.98"/>
        <lane id="DB2D_1" index="1" speed="30.00" length="294.47" shape="0.00,640.82,-11.98 294.47,640.82,-11.98"/>
    </edge>
    <edge id="DC2D" from="DC" to="D" priority="-1">
        <lane id="DC2D_0" index="0" speed="30.00" length="294.47" shape="300.07,947.28,-11.98 300.07,652.82,-11.98"/>
        <lane id="DC2D_1" index="1" speed="30.00" length="294.47" shape="303.27,947.28,-11.98 303.27,652.82,-11.98"/>
    </edge>
    <edge id="TL2A" from="TL" to="A" priority="-1">
        <lane id="TL2A_0" index="0" speed="25.00" length="291.43" shape="611.34,652.82 611.34,944.08,9.70"/>
    </edge>
    <edge id="TL2B" from="TL" to="B" priority="-1">
        <lane id="TL2B_0" index="0" speed="30.00" length="304.05" shape="616.94,637.62 920.72,637.62,-12.63"/>
        <lane id="TL2B_1" index="1" speed="30.00" length="304.05" shape="616.94,640.82 920.72,640.82,-12.63"/>
    </edge>
    <edge id="TL2C" from="TL" to="C" priority="-1">
        <lane id="TL2C_0" index="0" speed="25.00" length="303.78" shape="608.14,632.02 608.14,328.41,10.08"/>
    </edge>
    <edge id="TL2D" from="TL" to="D" priority="-1">
        <lane id="TL2D_0" index="0" speed="30.00" length="287.52" shape="602.54,647.22 315.27,647.22,-11.98"/>
        <lane id="TL2D_1" index="1" speed="30.00" length="287.52" shape="602.54,644.02 315.27,644.02,-11.98"/>
    </edge>

    <tlLogic id="A" type="static" programID="0" offset="0">
        <phase duration="40" state="GGrrGGrr"/>
        <phase duration="5"  state="yyrryyrr"/>
        <phase duration="40" state="rrGGrrGG"/>
        <phase duration="5"  state="rryyrryy"/>
    </tlLogic>
    <tlLogic id="AA" type="static" programID="0" offset="0">
        <phase duration="80" state="G"/>
        <phase duration="5"  state="y"/>
        <phase duration="5"  state="r"/>
    </tlLogic>
    <tlLogic id="AB" type="static" programID="0" offset="0">
        <phase duration="80" state="G"/>
        <phase duration="5"  state="y"/>
        <phase duration="5"  state="r"/>
    </tlLogic>
    <tlLogic id="AC" type="static" programID="0" offset="0">
        <phase duration="80" state="G"/>
        <phase duration="5"  state="y"/>
        <phase duration="5"  state="r"/>
    </tlLogic>
    <tlLogic id="B" type="static" programID="0" offset="0">
        <phase duration="39" state="GGGgrrrrGGGgrrrr"/>
        <phase duration="6"  state="yyyyrrrryyyyrrrr"/>
        <phase duration="39" state="rrrrGGGgrrrrGGGg"/>
        <phase duration="6"  state="rrrryyyyrrrryyyy"/>
    </tlLogic>
    <tlLogic id="BA" type="static" programID="0" offset="0">
        <phase duration="79" state="G"/>
        <phase duration="6"  state="y"/>
        <phase duration="5"  state="r"/>
    </tlLogic>
    <tlLogic id="BB" type="static" programID="0" offset="0">
        <phase duration="79" state="G"/>
        <phase duration="6"  state="y"/>
        <phase duration="5"  state="r"/>
    </tlLogic>
    <tlLogic id="BC" type="static" programID="0" offset="0">
        <phase duration="79" state="G"/>
        <phase duration="6"  state="y"/>
        <phase duration="5"  state="r"/>
    </tlLogic>
    <tlLogic id="C" type="static" programID="0" offset="0">
        <phase duration="40" state="GGrrGGrr"/>
        <phase duration="5"  state="yyrryyrr"/>
        <phase duration="40" state="rrGGrrGG"/>
        <phase duration="5"  state="rryyrryy"/>
    </tlLogic>
    <tlLogic id="CA" type="static" programID="0" offset="0">
        <phase duration="80" state="G"/>
        <phase duration="5"  state="y"/>
        <phase duration="5"  state="r"/>
    </tlLogic>
    <tlLogic id="CB" type="static" programID="0" offset="0">
        <phase duration="80" state="G"/>
        <phase duration="5"  state="y"/>
        <phase duration="5"  state="r"/>
    </tlLogic>
    <tlLogic id="CC" type="static" programID="0" offset="0">
        <phase duration="80" state="G"/>
        <phase duration="5"  state="y"/>
        <phase duration="5"  state="r"/>
    </tlLogic>
    <tlLogic id="D" type="static" programID="0" offset="0">
        <phase duration="39" state="GGGgrrrrGGGgrrrr"/>
        <phase duration="6"  state="yyyyrrrryyyyrrrr"/>
        <phase duration="39" state="rrrrGGGgrrrrGGGg"/>
        <phase duration="6"  state="rrrryyyyrrrryyyy"/>
    </tlLogic>
    <tlLogic id="DA" type="static" programID="0" offset="0">
        <phase duration="79" state="G"/>
        <phase duration="6"  state="y"/>
        <phase duration="5"  state="r"/>
    </tlLogic>
    <tlLogic id="DB" type="static" programID="0" offset="0">
        <phase duration="79" state="G"/>
        <phase duration="6"  state="y"/>
        <phase duration="5"  state="r"/>
    </tlLogic>
    <tlLogic id="DC" type="static" programID="0" offset="0">
        <phase duration="79" state="G"/>
        <phase duration="6"  state="y"/>
        <phase duration="5"  state="r"/>
    </tlLogic>
    <tlLogic id="TL" type="static" programID="0" offset="0">
        <phase duration="39" state="srGGGgsrGGGg"/>
        <phase duration="6"  state="sryyyysryyyy"/>
        <phase duration="39" state="GGsrrrGGsrrr"/>
        <phase duration="6"  state="yysrrryysrrr"/>
    </tlLogic>

    <junction id="A" type="traffic_light" x="609.74" y="951.28" z="9.70" incLanes="AB2A_0 AC2A_0 TL2A_0 AA2A_0" intLanes=":A_0_0 :A_1_0 :A_2_0 :A_3_0 :A_4_0 :A_5_0 :A_6_0 :A_7_0" shape="606.54,958.48,9.70 612.94,958.48,9.70 613.38,956.26,9.70 613.94,955.48,9.70 614.71,954.93,9.70 615.71,954.59,9.70 616.94,954.48,9.70 616.94,948.08,9.70 614.71,947.64,9.70 613.94,947.08,9.70 613.38,946.31,9.70 613.05,945.31,9.70 612.94,944.08,9.70 606.54,944.08,9.70 606.09,946.31,9.70 605.54,947.08,9.70 604.76,947.64,9.70 603.76,947.97,9.70 602.54,948.08,9.70 602.54,954.48,9.70 604.76,954.93,9.70 605.54,955.48,9.70 606.09,956.26,9.70 606.42,957.26,9.70">
        <request index="0" response="00000000" foes="00001000" cont="0"/>
        <request index="1" response="00000000" foes="11001000" cont="0"/>
        <request index="2" response="00100000" foes="00100000" cont="0"/>
        <request index="3" response="00100011" foes="00100011" cont="0"/>
        <request index="4" response="00000000" foes="10000000" cont="0"/>
        <request index="5" response="00000000" foes="10001100" cont="0"/>
        <request index="6" response="00000010" foes="00000010" cont="0"/>
        <request index="7" response="00110010" foes="00110010" cont="0"/>
    </junction>
    <junction id="AA" type="traffic_light" x="300.87" y="951.28" z="9.70" incLanes="A2AA_0" intLanes=":AA_0_0" shape="300.87,951.28,9.70 300.87,954.48,9.70 300.87,951.28,9.70">
        <request index="0" response="0" foes="0" cont="0"/>
    </junction>
    <junction id="AB" type="traffic_light" x="609.74" y="1260.15" z="9.70" incLanes="A2AB_0" intLanes=":AB_0_0" shape="609.74,1260.15,9.70 612.94,1260.15,9.70 609.74,1260.15,9.70">
        <request index="0" response="0" foes="0" cont="0"/>
    </junction>