<?xml version="1.0" encoding="UTF-8"?>

<!-- generated on 2022-10-11 16:45:06 by Eclipse SUMO netconvert Version 1.14.1
<configuration xmlns:xsi="http://www.w3.org/2001/XMLSchema-instance" xsi:noNamespaceSchemaLocation="http://sumo.dlr.de/xsd/netconvertConfiguration.xsd">

    <input>
        <node-files value="../data/salt-lake-city/nodes.nod.xml"/>
        <edge-files value="../data/salt-lake-city/edges.edg.xml"/>
        <connection-files value="../data/salt-lake-city/connections.con.xml"/>
    </input>

    <output>
        <output-file value="../data/salt-lake-city/sumo/net/6.net.xml"/>
    </output>

    <tls_building>
        <tls.minor-left.max-speed value="1"/>
    </tls_building>

    <report>
        <verbose value="true"/>
    </report>

</configuration>
-->

<net version="1.9" junctionCornerDetail="5" limitTurnSpeed="5.50" xmlns:xsi="http://www.w3.org/2001/XMLSchema-instance" xsi:noNamespaceSchemaLocation="http://sumo.dlr.de/xsd/net_file.xsd">

    <location netOffset="636.41,766.03" convBoundary="0.00,0.00,1244.46,1407.25" origBoundary="-636.41,-766.03,608.05,641.22" projParameter="!"/>

    <edge id=":A_0" function="internal">
        <lane id=":A_0_0" index="0" speed="7.33" length="11.73" shape="634.81,1097.04,5.37 634.26,1094.59,5.37 632.61,1092.84,5.37 629.86,1091.79,5.37 626.01,1091.44,5.37"/>
    </edge>
    <edge id=":A_1" function="internal">
        <lane id=":A_1_0" index="0" speed="30.00" length="21.09" shape="634.81,1097.04,5.37 634.31,1093.08,5.34 633.21,1088.51,5.30 632.11,1083.00,5.26 631.61,1076.24,5.20"/>
    </edge>
    <edge id=":A_2" function="internal">
        <lane id=":A_2_0" index="0" speed="7.33" length="11.73" shape="646.81,1088.24,5.37 644.36,1088.79,5.37 642.61,1090.44,5.37 641.56,1093.19,5.37 641.21,1097.04,5.37"/>
    </edge>
    <edge id=":A_3" function="internal">
        <lane id=":A_3_0" index="0" speed="30.00" length="21.09" shape="646.81,1088.24,5.37 642.86,1088.74,5.37 638.29,1089.84,5.37 632.78,1090.94,5.37 626.01,1091.44,5.37"/>
    </edge>
    <edge id=":A_4" function="internal">
        <lane id=":A_4_0" index="0" speed="7.33" length="11.73" shape="638.01,1076.24,5.20 638.56,1078.69,5.24 640.21,1080.44,5.27 642.96,1081.49,5.32 646.81,1081.84,5.37"/>
    </edge>
    <edge id=":A_5" function="internal">
        <lane id=":A_5_0" index="0" speed="30.00" length="21.09" shape="638.01,1076.24,5.20 638.51,1080.19,5.23 639.61,1084.76,5.27 640.71,1090.27,5.32 641.21,1097.04,5.37"/>
    </edge>
    <edge id=":A_6" function="internal">
        <lane id=":A_6_0" index="0" speed="7.33" length="11.73" shape="626.01,1085.04,5.37 628.46,1084.49,5.34 630.21,1082.84,5.30 631.26,1080.09,5.26 631.61,1076.24,5.20"/>
    </edge>
    <edge id=":A_7" function="internal">
        <lane id=":A_7_0" index="0" speed="30.00" length="21.09" shape="626.01,1085.04,5.37 629.97,1084.54,5.37 634.54,1083.44,5.37 640.05,1082.34,5.37 646.81,1081.84,5.37"/>
    </edge>
    <edge id=":AA_0" function="internal">
        <lane id=":AA_0_0" index="0" speed="3.65" length="4.67" shape="315.80,1088.24,5.37 314.60,1087.44,5.37 314.20,1086.64,5.37 314.60,1085.84,5.37 315.80,1085.04,5.37"/>
    </edge>
    <edge id=":AB_0" function="internal">
        <lane id=":AB_0_0" index="0" speed="3.65" length="4.67" shape="638.01,1407.25,5.37 637.21,1408.45,5.37 636.41,1408.85,5.37 635.61,1408.45,5.37 634.81,1407.25,5.37"/>
    </edge>
    <edge id=":AC_0" function="internal">
        <lane id=":AC_0_0" index="0" speed="3.65" length="4.67" shape="957.02,1085.04,5.37 958.22,1085.84,5.37 958.62,1086.64,5.37 958.22,1087.44,5.37 957.02,1088.24,5.37"/>
    </edge>
    <edge id=":B_0" function="internal">
        <lane id=":B_0_0" index="0" speed="6.51" length="9.03" shape="935.64,776.43,-3.80 935.29,773.98,-3.76 934.24,772.23,-3.73 932.49,771.18,-3.70 930.04,770.83,-3.67"/>
    </edge>
    <edge id=":B_1" function="internal">
        <lane id=":B_1_0" index="0" speed="25.00" length="20.80" shape="935.64,776.43,-3.80 935.64,755.63,-3.80"/>
        <lane id=":B_1_1" index="1" speed="25.00" length="20.80" shape="938.84,776.43,-3.80 938.84,755.63,-3.80"/>
    </edge>
    <edge id=":B_3" function="internal">
        <lane id=":B_3_0" index="0" speed="9.26" length="5.01" shape="938.84,776.43,-3.80 939.54,771.46,-3.80"/>
    </edge>
    <edge id=":B_16" function="internal">
        <lane id=":B_16_0" index="0" speed="9.26" length="14.34" shape="939.54,771.46,-3.80 939.59,771.18,-3.80 941.84,767.43,-3.80 945.59,765.18,-3.80 950.84,764.43,-3.80"/>
    </edge>
    <edge id=":B_4" function="internal">
        <lane id=":B_4_0" index="0" speed="6.51" length="9.03" shape="950.84,770.83,-3.80 948.39,771.18,-3.80 946.64,772.23,-3.80 945.59,773.98,-3.80 945.24,776.43,-3.80"/>
    </edge>
    <edge id=":B_5" function="internal">
        <lane id=":B_5_0" index="0" speed="25.00" length="20.80" shape="950.84,770.83,-3.80 930.04,770.83,-3.67"/>
        <lane id=":B_5_1" index="1" speed="25.00" length="20.80" shape="950.84,767.63,-3.80 930.04,767.63,-3.67"/>
    </edge>
    <edge id=":B_7" function="internal">
        <lane id=":B_7_0" index="0" speed="9.26" length="5.01" shape="950.84,767.63,-3.80 945.87,766.92,-3.80"/>
    </edge>
    <edge id=":B_17" function="internal">
        <lane id=":B_17_0" index="0" speed="9.26" length="14.34" shape="945.87,766.92,-3.80 945.59,766.88,-3.80 941.84,764.63,-3.80 939.59,760.88,-3.80 938.84,755.63,-3.80"/>
    </edge>
    <edge id=":B_8" function="internal">
        <lane id=":B_8_0" index="0" speed="6.51" length="9.03" shape="945.24,755.63,-3.80 945.59,758.08,-3.80 946.64,759.83,-3.80 948.39,760.88,-3.80 950.84,761.23,-3.80"/>
    </edge>
    <edge id=":B_9" function="internal">
        <lane id=":B_9_0" index="0" speed="25.00" length="20.80" shape="945.24,755.63,-3.80 945.24,776.43,-3.80"/>
        <lane id=":B_9_1" index="1" speed="25.00" length="20.80" shape="942.04,755.63,-3.80 942.04,776.43,-3.80"/>
    </edge>
    <edge id=":B_11" function="internal">
        <lane id=":B_11_0" index="0" speed="9.26" length="5.01" shape="942.04,755.63,-3.80 941.33,760.59,-3.77"/>
    </edge>
    <edge id=":B_18" function="internal">
        <lane id=":B_18_0" index="0" speed="9.26" length="14.34" shape="941.33,760.59,-3.77 941.29,760.88,-3.76 939.04,764.63,-3.73 935.29,766.88,-3.70 930.04,767.63,-3.67"/>
    </edge>
    <edge id=":B_12" function="internal">
        <lane id=":B_12_0" index="0" speed="6.51" length="9.03" shape="930.04,761.23,-3.67 932.49,760.88,-3.70 934.24,759.83,-3.73 935.29,758.08,-3.76 935.64,755.63,-3.80"/>
    </edge>
    <edge id=":B_13" function="internal">
        <lane id=":B_13_0" index="0" speed="25.00" length="20.80" shape="930.04,761.23,-3.67 950.84,761.23,-3.80"/>
        <lane id=":B_13_1" index="1" speed="25.00" length="20.80" shape="930.04,764.43,-3.67 950.84,764.43,-3.80"/>
    </edge>
    <edge id=":B_15" function="internal">
        <lane id=":B_15_0" index="0" speed="9.26" length="5.01" shape="930.04,764.43,-3.67 935.00,765.14,-3.70"/>
    </edge>
    <edge id=":B_19" function="internal">
        <lane id=":B_19_0" index="0" speed="9.26" length="14.34" shape="935.00,765.14,-3.70 935.29,765.18,-3.70 939.04,767.43,-3.73 941.29,771.18,-3.76 942.04,776.43,-3.80"/>
    </edge>
    <edge id=":BA_0" function="internal">
        <lane id=":BA_0_0" index="0" speed="3.65" length="4.67" shape="942.04,1070.05,-3.80 941.24,1071.25,-3.80 940.44,1071.65,-3.80 939.64,1071.25,-3.80 938.84,1070.05,-3.80"/>
    </edge>
    <edge id=":BB_0" function="internal">
        <lane id=":BB_0_0" index="0" speed="3.65" length="4.67" shape="1244.46,764.43,-3.80 1245.66,765.23,-3.80 1246.06,766.03,-3.80 1245.66,766.83,-3.80 1244.46,767.63,-3.80"/>
    </edge>
    <edge id=":BC_0" function="internal">
        <lane id=":BC_0_0" index="0" speed="3.65" length="4.67" shape="938.84,462.00,-3.80 939.64,460.80,-3.80 940.44,460.40,-3.80 941.24,460.80,-3.80 942.04,462.00,-3.80"/>
    </edge>
    <edge id=":C_0" function="internal">
        <lane id=":C_0_0" index="0" speed="7.33" length="11.73" shape="634.81,393.41,-5.11 634.26,390.96,-5.14 632.61,389.21,-5.17 629.86,388.16,-5.21 626.01,387.81,-5.25"/>
    </edge>
    <edge id=":C_1" function="internal">
        <lane id=":C_1_0" index="0" speed="30.00" length="21.09" shape="634.81,393.41,-5.11 634.31,389.46,-5.14 633.21,384.89,-5.17 632.11,379.38,-5.21 631.61,372.61,-5.25"/>
    </edge>
    <edge id=":C_2" function="internal">
        <lane id=":C_2_0" index="0" speed="7.33" length="11.73" shape="646.81,384.61,-5.25 644.36,385.16,-5.22 642.61,386.81,-5.19 641.56,389.56,-5.16 641.21,393.41,-5.11"/>
    </edge>
    <edge id=":C_3" function="internal">
        <lane id=":C_3_0" index="0" speed="30.00" length="21.09" shape="646.81,384.61,-5.25 642.86,385.11,-5.25 638.29,386.21,-5.25 632.78,387.31,-5.25 626.01,387.81,-5.25"/>
    </edge>
    <edge id=":C_4" function="internal">
        <lane id=":C_4_0" index="0" speed="7.33" length="11.73" shape="638.01,372.61,-5.25 638.56,375.06,-5.25 640.21,376.81,-5.25 642.96,377.86,-5.25 646.81,378.21,-5.25"/>
    </edge>
    <edge id=":C_5" function="internal">
        <lane id=":C_5_0" index="0" speed="30.00" length="21.09" shape="638.01,372.61,-5.25 638.51,376.57,-5.23 639.61,381.14,-5.19 640.71,386.65,-5.16 641.21,393.41,-5.11"/>
    </edge>
    <edge id=":C_6" function="internal">
        <lane id=":C_6_0" index="0" speed="7.33" length="11.73" shape="626.01,381.41,-5.25 628.46,380.86,-5.25 630.21,379.21,-5.25 631.26,376.46,-5.25 631.61,372.61,-5.25"/>
    </edge>
    <edge id=":C_7" function="internal">
        <lane id=":C_7_0" index="0" speed="30.00" length="21.09" shape="626.01,381.41,-5.25 629.97,380.91,-5.25 634.54,379.81,-5.25 640.05,378.71,-5.25 646.81,378.21,-5.25"/>
    </edge>
    <edge id=":CA_0" function="internal">
        <lane id=":CA_0_0" index="0" speed="3.65" length="4.67" shape="1019.43,381.41,-5.25 1020.63,382.21,-5.25 1021.03,383.01,-5.25 1020.63,383.81,-5.25 1019.43,384.61,-5.25"/>
    </edge>
    <edge id=":CB_0" function="internal">
        <lane id=":CB_0_0" index="0" speed="3.65" length="4.67" shape="634.81,0.00,-5.25 635.61,-1.20,-5.25 636.41,-1.60,-5.25 637.21,-1.20,-5.25 638.01,0.00,-5.25"/>
    </edge>
    <edge id=":CC_0" function="internal">
        <lane id=":CC_0_0" index="0" speed="3.65" length="4.67" shape="253.40,384.61,-5.25 252.20,383.81,-5.25 251.80,383.01,-5.25 252.20,382.21,-5.25 253.40,381.41,-5.25"/>
    </edge>
    <edge id=":D_0" function="internal">
        <lane id=":D_0_0" index="0" speed="6.51" length="9.03" shape="313.41,776.43,-4.66 313.06,773.98,-4.66 312.01,772.23,-4.66 310.26,771.18,-4.66 307.81,770.83,-4.66"/>
    </edge>
    <edge id=":D_1" function="internal">
        <lane id=":D_1_0" index="0" speed="25.00" length="20.80" shape="313.41,776.43,-4.66 313.41,755.63,-4.66"/>
        <lane id=":D_1_1" index="1" speed="25.00" length="20.80" shape="316.61,776.43,-4.66 316.61,755.63,-4.66"/>
    </edge>
    <edge id=":D_3" function="internal">
        <lane id=":D_3_0" index="0" speed="9.26" length="5.01" shape="316.61,776.43,-4.66 317.32,771.46,-4.62"/>
    </edge>
    <edge id=":D_16" function="internal">
        <lane id=":D_16_0" index="0" speed="9.26" length="14.34" shape="317.32,771.46,-4.62 317.36,771.18,-4.61 319.61,767.43,-4.58 323.36,765.18,-4.54 328.61,764.43,-4.50"/>
    </edge>
    <edge id=":D_4" function="internal">
        <lane id=":D_4_0" index="0" speed="6.51" length="9.03" shape="328.61,770.83,-4.50 326.16,771.18,-4.54 324.41,772.23,-4.58 323.36,773.98,-4.61 323.01,776.43,-4.66"/>
    </edge>
    <edge id=":D_5" function="internal">
        <lane id=":D_5_0" index="0" speed="25.00" length="20.80" shape="328.61,770.83,-4.50 307.81,770.83,-4.66"/>
        <lane id=":D_5_1" index="1" speed="25.00" length="20.80" shape="328.61,767.63,-4.50 307.81,767.63,-4.66"/>
    </edge>
    <edge id=":D_7" function="internal">
        <lane id=":D_7_0" index="0" speed="9.26" length="5.01" shape="328.61,767.63,-4.50 323.64,766.92,-4.54"/>
    </edge>
    <edge id=":D_17" function="internal">
        <lane id=":D_17_0" index="0" speed="9.26" length="14.34" shape="323.64,766.92,-4.54 323.36,766.88,-4.54 319.61,764.63,-4.58 317.36,760.88,-4.61 316.61,755.63,-4.66"/>
    </edge>
    <edge id=":D_8" function="internal">
        <lane id=":D_8_0" index="0" speed="6.51" length="9.03" shape="323.01,755.63,-4.66 323.36,758.08,-4.61 324.41,759.83,-4.58 326.16,760.88,-4.54 328.61,761.23,-4.50"/>
    </edge>
    <edge id=":D_9" function="internal">
        <lane id=":D_9_0" index="0" speed="25.00" length="20.80" shape="323.01,755.63,-4.66 323.01,776.43,-4.66"/>
        <lane id=":D_9_1" index="1" speed="25.00" length="20.80" shape="319.81,755.63,-4.66 319.81,776.43,-4.66"/>
    </edge>
    <edge id=":D_11" function="internal">
        <lane id=":D_11_0" index="0" speed="9.26" length="5.01" shape="319.81,755.63,-4.66 319.10,760.59,-4.66"/>
    </edge>
    <edge id=":D_18" function="internal">
        <lane id=":D_18_0" index="0" speed="9.26" length="14.34" shape="319.10,760.59,-4.66 319.06,760.88,-4.66 316.81,764.63,-4.66 313.06,766.88,-4.66 307.81,767.63,-4.66"/>
    </edge>
    <edge id=":D_12" function="internal">
        <lane id=":D_12_0" index="0" speed="6.51" length="9.03" shape="307.81,761.23,-4.66 310.26,760.88,-4.66 312.01,759.83,-4.66 313.06,758.08,-4.66 313.41,755.63,-4.66"/>
    </edge>
    <edge id=":D_13" function="internal">
        <lane id=":D_13_0" index="0" speed="25.00" length="20.80" shape="307.81,761.23,-4.66 328.61,761.23,-4.50"/>
        <lane id=":D_13_1" index="1" speed="25.00" length="20.80" shape="307.81,764.43,-4.66 328.61,764.43,-4.50"/>
    </edge>
    <edge id=":D_15" function="internal">
        <lane id=":D_15_0" index="0" speed="9.26" length="5.01" shape="307.81,764.43,-4.66 312.77,765.14,-4.66"/>
    </edge>
    <edge id=":D_19" function="internal">
        <lane id=":D_19_0" index="0" speed="9.26" length="14.34" shape="312.77,765.14,-4.66 313.06,765.18,-4.66 316.81,767.43,-4.66 319.06,771.18,-4.66 319.81,776.43,-4.66"/>
    </edge>
    <edge id=":DA_0" function="internal">
        <lane id=":DA_0_0" index="0" speed="3.65" length="4.67" shape="316.61,447.82,-4.66 317.41,446.62,-4.66 318.21,446.22,-4.66 319.01,446.62,-4.66 319.81,447.82,-4.66"/>
    </edge>
    <edge id=":DB_0" function="internal">
        <lane id=":DB_0_0" index="0" speed="3.65" length="4.67" shape="-0.00,767.63,-4.66 -1.20,766.83,-4.66 -1.60,766.03,-4.66 -1.20,765.23,-4.66 0.00,764.43,-4.66"/>
    </edge>
    <edge id=":DC_0" function="internal">
        <lane id=":DC_0_0" index="0" speed="3.65" length="4.67" shape="319.81,1084.23,-4.66 319.01,1085.43,-4.66 318.21,1085.83,-4.66 317.41,1085.43,-4.66 316.61,1084.23,-4.66"/>
    </edge>
    <edge id=":TL_0" function="internal">
        <lane id=":TL_0_0" index="0" speed="6.51" length="9.04" shape="631.61,776.43,0.17 631.26,773.98,0.08 630.21,772.23,0.01 628.46,771.18,-0.06 626.01,770.83,-0.15"/>
    </edge>
    <edge id=":TL_1" function="internal">
        <lane id=":TL_1_0" index="0" speed="30.00" length="21.09" shape="631.61,776.43,0.17 632.11,769.66,0.07 633.21,764.15,-0.01 634.31,759.58,-0.08 634.81,755.63,-0.14"/>
    </edge>
    <edge id=":TL_2" function="internal">
        <lane id=":TL_2_0" index="0" speed="9.26" length="7.32" shape="634.81,776.43,0.17 635.56,771.18,0.09 636.60,769.45,0.06"/>
    </edge>
    <edge id=":TL_14" function="internal">
        <lane id=":TL_14_0" index="0" speed="9.26" length="12.04" shape="636.60,769.45,0.06 637.81,767.43,0.02 641.56,765.18,-0.05 646.81,764.43,-0.13"/>
    </edge>
    <edge id=":TL_3" function="internal">
        <lane id=":TL_3_0" index="0" speed="7.33" length="11.73" shape="646.81,770.83,-0.13 642.96,771.18,-0.03 640.21,772.23,0.05 638.56,773.98,0.11 638.01,776.43,0.17"/>
    </edge>
    <edge id=":TL_4" function="internal">
        <lane id=":TL_4_0" index="0" speed="25.00" length="20.80" shape="646.81,770.83,-0.13 626.01,770.83,-0.15"/>
        <lane id=":TL_4_1" index="1" speed="25.00" length="20.80" shape="646.81,767.63,-0.13 626.01,767.63,-0.15"/>
    </edge>
    <edge id=":TL_6" function="internal">
        <lane id=":TL_6_0" index="0" speed="9.26" length="5.01" shape="646.81,767.63,-0.13 641.85,766.92,-0.13"/>
    </edge>
    <edge id=":TL_15" function="internal">
        <lane id=":TL_15_0" index="0" speed="9.26" length="14.34" shape="641.85,766.92,-0.13 641.56,766.88,-0.13 637.81,764.63,-0.14 635.56,760.88,-0.14 634.81,755.63,-0.14"/>
    </edge>
    <edge id=":TL_7" function="internal">
        <lane id=":TL_7_0" index="0" speed="6.51" length="9.03" shape="641.21,755.63,-0.14 641.56,758.08,-0.14 642.61,759.83,-0.14 644.36,760.88,-0.13 646.81,761.23,-0.13"/>
    </edge>
    <edge id=":TL_8" function="internal">
        <lane id=":TL_8_0" index="0" speed="30.00" length="21.09" shape="641.21,755.63,-0.14 640.71,762.39,-0.04 639.61,767.90,0.04 638.51,772.47,0.11 638.01,776.43,0.17"/>
    </edge>
    <edge id=":TL_9" function="internal">
        <lane id=":TL_9_0" index="0" speed="9.26" length="7.32" shape="638.01,755.63,-0.14 637.26,760.88,-0.15 636.22,762.61,-0.15"/>
    </edge>
    <edge id=":TL_16" function="internal">
        <lane id=":TL_16_0" index="0" speed="9.26" length="12.03" shape="636.22,762.61,-0.15 635.01,764.63,-0.15 631.26,766.88,-0.15 626.01,767.63,-0.15"/>
    </edge>
    <edge id=":TL_10" function="internal">
        <lane id=":TL_10_0" index="0" speed="7.33" length="11.73" shape="626.01,761.23,-0.15 629.86,760.88,-0.15 632.61,759.83,-0.15 634.26,758.08,-0.14 634.81,755.63,-0.14"/>
    </edge>
    <edge id=":TL_11" function="internal">
        <lane id=":TL_11_0" index="0" speed="25.00" length="20.80" shape="626.01,761.23,-0.15 646.81,761.23,-0.13"/>
        <lane id=":TL_11_1" index="1" speed="25.00" length="20.80" shape="626.01,764.43,-0.15 646.81,764.43,-0.13"/>
    </edge>
    <edge id=":TL_13" function="internal">
        <lane id=":TL_13_0" index="0" speed="9.26" length="5.01" shape="626.01,764.43,-0.15 630.97,765.14,-0.07"/>
    </edge>
    <edge id=":TL_17" function="internal">
        <lane id=":TL_17_0" index="0" speed="9.26" length="14.34" shape="630.97,765.14,-0.07 631.26,765.18,-0.06 635.01,767.43,0.01 637.26,771.18,0.08 638.01,776.43,0.17"/>
    </edge>

    <edge id="A2AA" from="A" to="AA" priority="-1">
        <lane id="A2AA_0" index="0" speed="30.00" length="310.21" shape="626.01,1091.44,5.37 315.80,1091.44,5.37"/>
        <lane id="A2AA_1" index="1" speed="30.00" length="310.21" shape="626.01,1088.24,5.37 315.80,1088.24,5.37"/>
    </edge>
    <edge id="A2AB" from="A" to="AB" priority="-1">
        <lane id="A2AB_0" index="0" speed="30.00" length="310.21" shape="641.21,1097.04,5.37 641.21,1407.25,5.37"/>
        <lane id="A2AB_1" index="1" speed="30.00" length="310.21" shape="638.01,1097.04,5.37 638.01,1407.25,5.37"/>
    </edge>
    <edge id="A2AC" from="A" to="AC" priority="-1">
        <lane id="A2AC_0" index="0" speed="30.00" length="310.21" shape="646.81,1081.84,5.37 957.02,1081.84,5.37"/>
        <lane id="A2AC_1" index="1" speed="30.00" length="310.21" shape="646.81,1085.04,5.37 957.02,1085.04,5.37"/>
    </edge>
    <edge id="A2TL" from="A" to="TL" priority="-1">
        <lane id="A2TL_0" index="0" speed="30.00" length="299.85" shape="631.61,1076.24,5.20 631.61,776.43,0.17"/>
        <lane id="A2TL_1" index="1" speed="30.00" length="299.85" shape="634.81,1076.24,5.20 634.81,776.43,0.17"/>
    </edge>
    <edge id="AA2A" from="AA" to="A" priority="-1">
        <lane id="AA2A_0" index="0" speed="30.00" length="310.21" shape="315.80,1085.04,5.37 626.01,1085.04,5.37"/>
    </edge>
    <edge id="AB2A" from="AB" to="A" priority="-1">
        <lane id="AB2A_0" index="0" speed="30.00" length="310.21" shape="634.81,1407.25,5.37 634.81,1097.04,5.37"/>
    </edge>
    <edge id="AC2A" from="AC" to="A" priority="-1">
        <lane id="AC2A_0" index="0" speed="30.00" length="310.21" shape="957.02,1088.24,5.37 646.81,1088.24,5.37"/>
    </edge>
    <edge id="B2BA" from="B" to="BA" priority="-1">
        <lane id="B2BA_0" index="0" speed="25.00" length="293.62" shape="945.24,776.43,-3.80 945.24,1070.05,-3.80"/>
        <lane id="B2BA_1" index="1" speed="25.00" length="293.62" shape="942.04,776.43,-3.80 942.04,1070.05,-3.80"/>
    </edge>
    <edge id="B2BB" from="B" to="BB" priority="-1">
        <lane id="B2BB_0" index="0" speed="25.00" length="293.62" shape="950.84,761.23,-3.80 1244.46,761.23,-3.80"/>
        <lane id="B2BB_1" index="1" speed="25.00" length="293.62" shape="950.84,764.43,-3.80 1244.46,764.43,-3.80"/>
    </edge>
    <edge id="B2BC" from="B" to="BC" priority="-1">
        <lane id="B2BC_0" index="0" speed="25.00" length="293.62" shape="935.64,755.63,-3.80 935.64,462.00,-3.80"/>
        <lane id="B2BC_1" index="1" speed="25.00" length="293.62" shape="938.84,755.63,-3.80 938.84,462.00,-3.80"/>
    </edge>
    <edge id="B2TL" from="B" to="TL" priority="-1">
        <lane id="B2TL_0" index="0" speed="25.00" length="283.25" shape="930.04,770.83,-3.67 646.81,770.83,-0.13"/>
        <lane id="B2TL_1" index="1" speed="25.00" length="283.25" shape="930.04,767.63,-3.67 646.81,767.63,-0.13"/>
    </edge>
    <edge id="BA2B" from="BA" to="B" priority="-1">
        <lane id="BA2B_0" index="0" speed="25.00" length="293.62" shape="935.64,1070.05,-3.80 935.64,776.43,-3.80"/>
        <lane id="BA2B_1" index="1" speed="25.00" length="293.62" shape="938.84,1070.05,-3.80 938.84,776.43,-3.80"/>
    </edge>
    <edge id="BB2B" from="BB" to="B" priority="-1">
        <lane id="BB2B_0" index="0" speed="25.00" length="293.62" shape="1244.46,770.83,-3.80 950.84,770.83,-3.80"/>
        <lane id="BB2B_1" index="1" speed="25.00" length="293.62" shape="1244.46,767.63,-3.80 950.84,767.63,-3.80"/>
    </edge>
    <edge id="BC2B" from="BC" to="B" priority="-1">
        <lane id="BC2B_0" index="0" speed="25.00" length="293.62" shape="945.24,462.00,-3.80 945.24,755.63,-3.80"/>
        <lane id="BC2B_1" index="1" speed="25.00" length="293.62" shape="942.04,462.00,-3.80 942.04,755.63,-3.80"/>
    </edge>
    <edge id="C2CA" from="C" to="CA" priority="-1">
        <lane id="C2CA_0" index="0" speed="30.00" length="372.61" shape="646.81,378.21,-5.25 1019.43,378.21,-5.25"/>
        <lane id="C2CA_1" index="1" speed="30.00" length="372.61" shape="646.81,381.41,-5.25 1019.43,381.41,-5.25"/>
    </edge>
    <edge id="C2CB" from="C" to="CB" priority="-1">
        <lane id="C2CB_0" index="0" speed="30.00" length="372.61" shape="631.61,372.61,-5.25 631.61,0.00,-5.25"/>
        <lane id="C2CB_1" index="1" speed="30.00" length="372.61" shape="634.81,372.61,-5.25 634.81,0.00,-5.25"/>
    </edge>
    <edge id="C2CC" from="C" to="CC" priority="-1">
        <lane id="C2CC_0" index="0" speed="30.00" length="372.61" shape="626.01,387.81,-5.25 253.40,387.81,-5.25"/>
        <lane id="C2CC_1" index="1" speed="30.00" length="372.61" shape="626.01,384.61,-5.25 253.40,384.61,-5.25"/>
    </edge>
    <edge id="C2TL" from="C" to="TL" priority="-1">
        <lane id="C2TL_0" index="0" speed="30.00" length="362.25" shape="641.21,393.41,-5.11 641.21,755.63,-0.14"/>
        <lane id="C2TL_1" index="1" speed="30.00" length="362.25" shape="638.01,393.41,-5.11 638.01,755.63,-0.14"/>
    </edge>
    <edge id="CA2C" from="CA" to="C" priority="-1">
        <lane id="CA2C_0" index="0" speed="30.00" length="372.61" shape="1019.43,384.61,-5.25 646.81,384.61,-5.25"/>
    </edge>
    <edge id="CB2C" from="CB" to="C" priority="-1">
        <lane id="CB2C_0" index="0" speed="30.00" length="372.61" shape="638.01,0.00,-5.25 638.01,372.61,-5.25"/>
    </edge>
    <edge id="CC2C" from="CC" to="C" priority="-1">
        <lane id="CC2C_0" index="0" speed="30.00" length="372.61" shape="253.40,381.41,-5.25 626.01,381.41,-5.25"/>
    </edge>
    <edge id="D2DA" from="D" to="DA" priority="-1">
        <lane id="D2DA_0" index="0" speed="25.00" length="307.81" shape="313.41,755.63,-4.66 313.41,447.82,-4.66"/>
        <lane id="D2DA_1" index="1" speed="25.00" length="307.81" shape="316.61,755.63,-4.66 316.61,447.82,-4.66"/>
    </edge>
    <edge id="D2DB" from="D" to="DB" priority="-1">
        <lane id="D2DB_0" index="0" speed="25.00" length="307.81" shape="307.81,770.83,-4.66 -0.00,770.83,-4.66"/>
        <lane id="D2DB_1" index="1" speed="25.00" length="307.81" shape="307.81,767.63,-4.66 -0.00,767.63,-4.66"/>
    </edge>
    <edge id="D2DC" from="D" to="DC" priority="-1">
        <lane id="D2DC_0" index="0" speed="25.00" length="307.81" shape="323.01,776.43,-4.66 323.01,1084.23,-4.66"/>
        <lane id="D2DC_1" index="1" speed="25.00" length="307.81" shape="319.81,776.43,-4.66 319.81,1084.23,-4.66"/>
    </edge>
    <edge id="D2TL" from="D" to="TL" priority="-1">
        <lane id="D2TL_0" index="0" speed="25.00" length="297.44" shape="328.61,761.23,-4.50 626.01,761.23,-0.15"/>
        <lane id="D2TL_1" index="1" speed="25.00" length="297.44" shape="328.61,764.43,-4.50 626.01,764.43,-0.15"/>
    </edge>
    <edge id="DA2D" from="DA" to="D" priority="-1">
        <lane id="DA2D_0" index="0" speed="25.00" length="307.81" shape="323.01,447.82,-4.66 323.01,755.63,-4.66"/>
        <lane id="DA2D_1" index="1" speed="25.00" length="307.81" shape="319.81,447.82,-4.66 319.81,755.63,-4.66"/>
    </edge>
    <edge id="DB2D" from="DB" to="D" priority="-1">
        <lane id="DB2D_0" index="0" speed="25.00" length="307.81" shape="0.00,761.23,-4.66 307.81,761.23,-4.66"/>
        <lane id="DB2D_1" index="1" speed="25.00" length="307.81" shape="0.00,764.43,-4.66 307.81,764.43,-4.66"/>
    </edge>
    <edge id="DC2D" from="DC" to="D" priority="-1">
        <lane id="DC2D_0" index="0" speed="25.00" length="307.81" shape="313.41,1084.23,-4.66 313.41,776.43,-4.66"/>
        <lane id="DC2D_1" index="1" speed="25.00" length="307.81" shape="316.61,1084.23,-4.66 316.61,776.43,-4.66"/>
    </edge>
    <edge id="TL2A" from="TL" to="A" priority="-1">
        <lane id="TL2A_0" index="0" speed="30.00" length="299.85" shape="638.01,776.43,0.17 638.01,1076.24,5.20"/>
    </edge>
    <edge id="TL2B" from="TL" to="B" priority="-1">
        <lane id="TL2B_0" index="0" speed="25.00" length="283.25" shape="646.81,761.23,-0.13 930.04,761.23,-3.67"/>
        <lane id="TL2B_1" index="1" speed="25.00" length="283.25" shape="646.81,764.43,-0.13 930.04,764.43,-3.67"/>
    </edge>
    <edge id="TL2C" from="TL" to="C" priority="-1">
        <lane id="TL2C_0" index="0" speed="30.00" length="362.25" shape="634.81,755.63,-0.14 634.81,393.41,-5.11"/>
    </edge>
    <edge id="TL2D" from="TL" to="D" priority="-1">
        <lane id="TL2D_0" index="0" speed="25.00" length="297.44" shape="626.01,770.83,-0.15 328.61,770.83,-4.50"/>
        <lane id="TL2D_1" index="1" speed="25.00" length="297.44" shape="626.01,767.63,-0.15 328.61,767.63,-4.50"/>
    </edge>

    <tlLogic id="A" type="static" programID="0" offset="0">
        <phase duration="39" state="GGrrGGrr"/>
        <phase duration="6"  state="yyrryyrr"/>
        <phase duration="39" state="rrGGrrGG"/>
        <phase duration="6"  state="rryyrryy"/>
    </tlLogic>
    <tlLogic id="AA" type="static" programID="0" offset="0">
        <phase duration="79" state="G"/>
        <phase duration="6"  state="y"/>
        <phase duration="5"  state="r"/>
    </tlLogic>
    <tlLogic id="AB" type="static" programID="0" offset="0">
        <phase duration="79" state="G"/>
        <phase duration="6"  state="y"/>
        <phase duration="5"  state="r"/>
    </tlLogic>
    <tlLogic id="AC" type="static" programID="0" offset="0">
        <phase duration="79" state="G"/>
        <phase duration="6"  state="y"/>
        <phase duration="5"  state="r"/>
    </tlLogic>
    <tlLogic id="B" type="static" programID="0" offset="0">
        <phase duration="40" state="GGGgrrrrGGGgrrrr"/>
        <phase duration="5"  state="yyyyrrrryyyyrrrr"/>
        <phase duration="40" state="rrrrGGGgrrrrGGGg"/>
        <phase duration="5"  state="rrrryyyyrrrryyyy"/>
    </tlLogic>
    <tlLogic id="BA" type="static" programID="0" offset="0">
        <phase duration="80" state="G"/>
        <phase duration="5"  state="y"/>
        <phase duration="5"  state="r"/>
    </tlLogic>
    <tlLogic id="BB" type="static" programID="0" offset="0">
        <phase duration="80" state="G"/>
        <phase duration="5"  state="y"/>
        <phase duration="5"  state="r"/>
    </tlLogic>
    <tlLogic id="BC" type="static" programID="0" offset="0">
        <phase duration="80" state="G"/>
        <phase duration="5"  state="y"/>
        <phase duration="5"  state="r"/>
    </tlLogic>
    <tlLogic id="C" type="static" programID="0" offset="0">
        <phase duration="39" state="GGrrGGrr"/>
        <phase duration="6"  state="yyrryyrr"/>
        <phase duration="39" state="rrGGrrGG"/>
        <phase duration="6"  state="rryyrryy"/>
    </tlLogic>
    <tlLogic id="CA" type="static" programID="0" offset="0">
        <phase duration="79" state="G"/>
        <phase duration="6"  state="y"/>
        <phase duration="5"  state="r"/>
    </tlLogic>
    <tlLogic id="CB" type="static" programID="0" offset="0">
        <phase duration="79" state="G"/>
        <phase duration="6"  state="y"/>
        <phase duration="5"  state="r"/>
    </tlLogic>
    <tlLogic id="CC" type="static" programID="0" offset="0">
        <phase duration="79" state="G"/>
        <phase duration="6"  state="y"/>
        <phase duration="5"  state="r"/>
    </tlLogic>
    <tlLogic id="D" type="static" programID="0" offset="0">
        <phase duration="40" state="GGGgrrrrGGGgrrrr"/>
        <phase duration="5"  state="yyyyrrrryyyyrrrr"/>
        <phase duration="40" state="rrrrGGGgrrrrGGGg"/>
        <phase duration="5"  state="rrrryyyyrrrryyyy"/>
    </tlLogic>
    <tlLogic id="DA" type="static" programID="0" offset="0">
        <phase duration="80" state="G"/>
        <phase duration="5"  state="y"/>
        <phase duration="5"  state="r"/>
    </tlLogic>