<?xml version="1.0" encoding="UTF-8"?>

<!-- generated on 2022-10-11 17:10:53 by Eclipse SUMO netconvert Version 1.14.1
<configuration xmlns:xsi="http://www.w3.org/2001/XMLSchema-instance" xsi:noNamespaceSchemaLocation="http://sumo.dlr.de/xsd/netconvertConfiguration.xsd">

    <input>
        <node-files value="../data/salt-lake-city/nodes.nod.xml"/>
        <edge-files value="../data/salt-lake-city/edges.edg.xml"/>
        <connection-files value="../data/salt-lake-city/connections.con.xml"/>
    </input>

    <output>
        <output-file value="../data/salt-lake-city/sumo/net/61.net.xml"/>
    </output>

    <tls_building>
        <tls.minor-left.max-speed value="1"/>
    </tls_building>

    <report>
        <verbose value="true"/>
    </report>

</configuration>
-->

<net version="1.9" junctionCornerDetail="5" limitTurnSpeed="5.50" xmlns:xsi="http://www.w3.org/2001/XMLSchema-instance" xsi:noNamespaceSchemaLocation="http://sumo.dlr.de/xsd/net_file.xsd">

    <location netOffset="1228.22,639.28" convBoundary="0.00,0.00,1865.46,1275.64" origBoundary="-1228.22,-639.28,637.24,636.36" projParameter="!"/>

    <edge id=":A_0" function="internal">
        <lane id=":A_0_0" index="0" speed="7.33" length="11.73" shape="1226.62,967.86,7.66 1226.07,965.41,7.66 1224.42,963.66,7.66 1221.67,962.61,7.66 1217.82,962.26,7.66"/>
    </edge>
    <edge id=":A_1" function="internal">
        <lane id=":A_1_0" index="0" speed="30.00" length="21.09" shape="1226.62,967.86,7.66 1226.12,963.91,7.66 1225.02,959.34,7.66 1223.92,953.83,7.66 1223.42,947.06,7.66"/>
    </edge>
    <edge id=":A_2" function="internal">
        <lane id=":A_2_0" index="0" speed="7.33" length="11.73" shape="1238.62,959.06,7.66 1236.17,959.61,7.66 1234.42,961.26,7.66 1233.37,964.01,7.66 1233.02,967.86,7.66"/>
    </edge>
    <edge id=":A_3" function="internal">
        <lane id=":A_3_0" index="0" speed="30.00" length="21.09" shape="1238.62,959.06,7.66 1234.67,959.56,7.66 1230.10,960.66,7.66 1224.59,961.76,7.66 1217.82,962.26,7.66"/>
    </edge>
    <edge id=":A_4" function="internal">
        <lane id=":A_4_0" index="0" speed="7.33" length="11.73" shape="1229.82,947.06,7.66 1230.37,949.51,7.66 1232.02,951.26,7.66 1234.77,952.31,7.66 1238.62,952.66,7.66"/>
    </edge>
    <edge id=":A_5" function="internal">
        <lane id=":A_5_0" index="0" speed="30.00" length="21.09" shape="1229.82,947.06,7.66 1230.32,951.02,7.66 1231.42,955.59,7.66 1232.52,961.10,7.66 1233.02,967.86,7.66"/>
    </edge>
    <edge id=":A_6" function="internal">
        <lane id=":A_6_0" index="0" speed="7.33" length="11.73" shape="1217.82,955.86,7.66 1220.27,955.31,7.66 1222.02,953.66,7.66 1223.07,950.91,7.66 1223.42,947.06,7.66"/>
    </edge>
    <edge id=":A_7" function="internal">
        <lane id=":A_7_0" index="0" speed="30.00" length="21.09" shape="1217.82,955.86,7.66 1221.77,955.36,7.66 1226.35,954.26,7.66 1231.86,953.16,7.66 1238.62,952.66,7.66"/>
    </edge>
    <edge id=":AA_0" function="internal">
        <lane id=":AA_0_0" index="0" speed="3.65" length="4.67" shape="910.04,959.06,7.66 908.84,958.26,7.66 908.44,957.46,7.66 908.84,956.66,7.66 910.04,955.86,7.66"/>
    </edge>
    <edge id=":AB_0" function="internal">
        <lane id=":AB_0_0" index="0" speed="3.65" length="4.67" shape="1229.82,1275.64,7.66 1229.02,1276.84,7.66 1228.22,1277.24,7.66 1227.42,1276.84,7.66 1226.62,1275.64,7.66"/>
    </edge>
    <edge id=":AC_0" function="internal">
        <lane id=":AC_0_0" index="0" speed="3.65" length="4.67" shape="1546.40,955.86,7.66 1547.60,956.66,7.66 1548.00,957.46,7.66 1547.60,958.26,7.66 1546.40,959.06,7.66"/>
    </edge>
    <edge id=":B_0" function="internal">
        <lane id=":B_0_0" index="0" speed="6.51" length="9.03" shape="1545.24,646.48,23.96 1544.89,644.03,23.96 1543.84,642.28,23.96 1542.09,641.23,23.96 1539.64,640.88,23.96"/>
    </edge>
    <edge id=":B_1" function="internal">
        <lane id=":B_1_0" index="0" speed="25.00" length="14.40" shape="1545.24,646.48,23.96 1545.24,632.08,23.96"/>
    </edge>
    <edge id=":B_2" function="internal">
        <lane id=":B_2_0" index="0" speed="6.51" length="9.03" shape="1554.04,640.88,23.96 1551.59,641.23,23.96 1549.84,642.28,23.96 1548.79,644.03,23.96 1548.44,646.48,23.96"/>
    </edge>
    <edge id=":B_3" function="internal">
        <lane id=":B_3_0" index="0" speed="25.00" length="14.40" shape="1554.04,640.88,23.96 1539.64,640.88,23.96"/>
    </edge>
    <edge id=":B_4" function="internal">
        <lane id=":B_4_0" index="0" speed="6.51" length="9.03" shape="1548.44,632.08,23.96 1548.79,634.53,23.96 1549.84,636.28,23.96 1551.59,637.33,23.96 1554.04,637.68,23.96"/>
    </edge>
    <edge id=":B_5" function="internal">
        <lane id=":B_5_0" index="0" speed="25.00" length="14.40" shape="1548.44,632.08,23.96 1548.44,646.48,23.96"/>
    </edge>
    <edge id=":B_6" function="internal">
        <lane id=":B_6_0" index="0" speed="6.51" length="9.03" shape="1539.64,637.68,23.96 1542.09,637.33,23.96 1543.84,636.28,23.96 1544.89,634.53,23.96 1545.24,632.08,23.96"/>
    </edge>
    <edge id=":B_7" function="internal">
        <lane id=":B_7_0" index="0" speed="25.00" length="14.40" shape="1539.64,637.68,23.96 1554.04,637.68,23.96"/>
    </edge>
    <edge id=":BA_0" function="internal">
        <lane id=":BA_0_0" index="0" speed="3.65" length="4.67" shape="1548.44,957.90,23.96 1547.64,959.10,23.96 1546.84,959.50,23.96 1546.04,959.10,23.96 1545.24,957.90,23.96"/>
    </edge>
    <edge id=":BB_0" function="internal">
        <lane id=":BB_0_0" index="0" speed="3.65" length="4.67" shape="1865.46,637.68,23.96 1866.66,638.48,23.96 1867.06,639.28,23.96 1866.66,640.08,23.96 1865.46,640.88,23.96"/>
    </edge>
    <edge id=":BC_0" function="internal">
        <lane id=":BC_0_0" index="0" speed="3.65" length="4.67" shape="1545.24,320.66,23.96 1546.04,319.46,23.96 1546.84,319.06,23.96 1547.64,319.46,23.96 1548.44,320.66,23.96"/>
    </edge>
    <edge id=":C_0" function="internal">
        <lane id=":C_0_0" index="0" speed="6.51" length="9.03" shape="1226.62,326.84,7.24 1226.27,324.39,7.28 1225.22,322.64,7.32 1223.47,321.59,7.36 1221.02,321.24,7.40"/>
    </edge>
    <edge id=":C_1" function="internal">
        <lane id=":C_1_0" index="0" speed="30.00" length="14.40" shape="1226.62,326.84,7.24 1226.62,312.44,7.40"/>
    </edge>
    <edge id=":C_2" function="internal">
        <lane id=":C_2_0" index="0" speed="6.51" length="9.03" shape="1235.42,321.24,7.40 1232.97,321.59,7.36 1231.22,322.64,7.32 1230.17,324.39,7.28 1229.82,326.84,7.24"/>
    </edge>
    <edge id=":C_3" function="internal">
        <lane id=":C_3_0" index="0" speed="30.00" length="14.40" shape="1235.42,321.24,7.40 1221.02,321.24,7.40"/>
    </edge>
    <edge id=":C_4" function="internal">
        <lane id=":C_4_0" index="0" speed="6.51" length="9.03" shape="1229.82,312.44,7.40 1230.17,314.89,7.40 1231.22,316.64,7.40 1232.97,317.69,7.40 1235.42,318.04,7.40"/>
    </edge>
    <edge id=":C_5" function="internal">
        <lane id=":C_5_0" index="0" speed="30.00" length="14.40" shape="1229.82,312.44,7.40 1229.82,326.84,7.24"/>
    </edge>
    <edge id=":C_6" function="internal">
        <lane id=":C_6_0" index="0" speed="6.51" length="9.03" shape="1221.02,318.04,7.40 1223.47,317.69,7.40 1225.22,316.64,7.40 1226.27,314.89,7.40 1226.62,312.44,7.40"/>
    </edge>
    <edge id=":C_7" function="internal">
        <lane id=":C_7_0" index="0" speed="30.00" length="14.40" shape="1221.02,318.04,7.40 1235.42,318.04,7.40"/>
    </edge>
    <edge id=":CA_0" function="internal">
        <lane id=":CA_0_0" index="0" speed="3.65" length="4.67" shape="1547.86,318.04,7.40 1549.06,318.84,7.40 1549.46,319.64,7.40 1549.06,320.44,7.40 1547.86,321.24,7.40"/>
    </edge>
    <edge id=":CB_0" function="internal">
        <lane id=":CB_0_0" index="0" speed="3.65" length="4.67" shape="1226.62,0.00,7.40 1227.42,-1.20,7.40 1228.22,-1.60,7.40 1229.02,-1.20,7.40 1229.82,0.00,7.40"/>
    </edge>
    <edge id=":CC_0" function="internal">
        <lane id=":CC_0_0" index="0" speed="3.65" length="4.67" shape="908.58,321.24,7.40 907.38,320.44,7.40 906.98,319.64,7.40 907.38,318.84,7.40 908.58,318.04,7.40"/>
    </edge>
    <edge id=":D_0" function="internal">
        <lane id=":D_0_0" index="0" speed="6.51" length="9.03" shape="612.51,646.48,7.49 612.16,644.03,7.49 611.11,642.28,7.49 609.36,641.23,7.49 606.91,640.88,7.49"/>
    </edge>
    <edge id=":D_1" function="internal">
        <lane id=":D_1_0" index="0" speed="25.00" length="14.40" shape="612.51,646.48,7.49 612.51,632.08,7.49"/>
    </edge>
    <edge id=":D_2" function="internal">
        <lane id=":D_2_0" index="0" speed="6.51" length="9.03" shape="621.31,640.88,7.40 618.86,641.23,7.42 617.11,642.28,7.44 616.06,644.03,7.46 615.71,646.48,7.49"/>
    </edge>
    <edge id=":D_3" function="internal">
        <lane id=":D_3_0" index="0" speed="25.00" length="14.40" shape="621.31,640.88,7.40 606.91,640.88,7.49"/>
    </edge>
    <edge id=":D_4" function="internal">
        <lane id=":D_4_0" index="0" speed="6.51" length="9.03" shape="615.71,632.08,7.49 616.06,634.53,7.46 617.11,636.28,7.44 618.86,637.33,7.42 621.31,637.68,7.40"/>
    </edge>
    <edge id=":D_5" function="internal">
        <lane id=":D_5_0" index="0" speed="25.00" length="14.40" shape="615.71,632.08,7.49 615.71,646.48,7.49"/>
    </edge>
    <edge id=":D_6" function="internal">
        <lane id=":D_6_0" index="0" speed="6.51" length="9.03" shape="606.91,637.68,7.49 609.36,637.33,7.49 611.11,636.28,7.49 612.16,634.53,7.49 612.51,632.08,7.49"/>
    </edge>
    <edge id=":D_7" function="internal">
        <lane id=":D_7_0" index="0" speed="25.00" length="14.40" shape="606.91,637.68,7.49 621.31,637.68,7.40"/>
    </edge>
    <edge id=":DA_0" function="internal">
        <lane id=":DA_0_0" index="0" speed="3.65" length="4.67" shape="612.51,25.17,7.49 613.31,23.97,7.49 614.11,23.57,7.49 614.91,23.97,7.49 615.71,25.17,7.49"/>
    </edge>
    <edge id=":DB_0" function="internal">
        <lane id=":DB_0_0" index="0" speed="3.65" length="4.67" shape="0.00,640.88,7.49 -1.20,640.08,7.49 -1.60,639.28,7.49 -1.20,638.48,7.49 0.00,637.68,7.49"/>
    </edge>
    <edge id=":DC_0" function="internal">
        <lane id=":DC_0_0" index="0" speed="3.65" length="4.67" shape="615.71,1253.39,7.49 614.91,1254.59,7.49 614.11,1254.99,7.49 613.31,1254.59,7.49 612.51,1253.39,7.49"/>
    </edge>
    <edge id=":TL_0" function="internal">
        <lane id=":TL_0_0" index="0" speed="6.51" length="9.03" shape="1223.42,646.48,0.18 1223.07,644.03,0.16 1222.02,642.28,0.15 1220.27,641.23,0.14 1217.82,640.88,0.13"/>
    </edge>
    <edge id=":TL_1" function="internal">
        <lane id=":TL_1_0" index="0" speed="30.00" length="14.83" shape="1223.42,646.48,0.18 1223.92,641.82,0.18 1225.02,638.39,0.17 1226.12,635.40,0.17 1226.62,632.08,0.17"/>
    </edge>
    <edge id=":TL_2" function="internal">
        <lane id=":TL_2_0" index="0" speed="8.00" length="4.07" shape="1226.62,646.48,0.18 1227.17,642.63,0.13 1227.26,642.48,0.13"/>
    </edge>
    <edge id=":TL_9" function="internal">
        <lane id=":TL_9_0" index="0" speed="8.00" length="10.13" shape="1227.26,642.48,0.13 1228.82,639.88,0.09 1231.57,638.23,0.05 1235.42,637.68"/>
    </edge>
    <edge id=":TL_3" function="internal">
        <lane id=":TL_3_0" index="0" speed="6.51" length="9.03" shape="1235.42,640.88 1232.97,641.23,0.05 1231.22,642.28,0.09 1230.17,644.03,0.13 1229.82,646.48,0.17"/>
    </edge>
    <edge id=":TL_4" function="internal">
        <lane id=":TL_4_0" index="0" speed="25.00" length="17.60" shape="1235.42,640.88 1217.82,640.88,0.13"/>
    </edge>
    <edge id=":TL_5" function="internal">
        <lane id=":TL_5_0" index="0" speed="6.51" length="9.03" shape="1229.82,632.08,0.17 1230.17,634.53,0.12 1231.22,636.28,0.08 1232.97,637.33,0.05 1235.42,637.68"/>
    </edge>
    <edge id=":TL_6" function="internal">
        <lane id=":TL_6_0" index="0" speed="30.00" length="14.40" shape="1229.82,632.08,0.17 1229.82,646.48,0.17"/>
    </edge>
    <edge id=":TL_7" function="internal">
        <lane id=":TL_7_0" index="0" speed="7.33" length="11.73" shape="1217.82,637.68,0.13 1221.67,637.33,0.14 1224.42,636.28,0.15 1226.07,634.53,0.16 1226.62,632.08,0.17"/>
    </edge>
    <edge id=":TL_8" function="internal">
        <lane id=":TL_8_0" index="0" speed="25.00" length="17.60" shape="1217.82,637.68,0.13 1235.42,637.68"/>
    </edge>

    <edge id="A2AA" from="A" to="AA" priority="-1">
        <lane id="A2AA_0" index="0" speed="30.00" length="307.78" shape="1217.82,962.26,7.66 910.04,962.26,7.66"/>
        <lane id="A2AA_1" index="1" speed="30.00" length="307.78" shape="1217.82,959.06,7.66 910.04,959.06,7.66"/>
    </edge>
    <edge id="A2AB" from="A" to="AB" priority="-1">
        <lane id="A2AB_0" index="0" speed="30.00" length="307.78" shape="1233.02,967.86,7.66 1233.02,1275.64,7.66"/>
        <lane id="A2AB_1" index="1" speed="30.00" length="307.78" shape="1229.82,967.86,7.66 1229.82,1275.64,7.66"/>
    </edge>
    <edge id="A2AC" from="A" to="AC" priority="-1">
        <lane id="A2AC_0" index="0" speed="30.00" length="307.78" shape="1238.62,952.66,7.66 1546.40,952.66,7.66"/>
        <lane id="A2AC_1" index="1" speed="30.00" length="307.78" shape="1238.62,955.86,7.66 1546.40,955.86,7.66"/>
    </edge>
    <edge id="A2TL" from="A" to="TL" priority="-1">
        <lane id="A2TL_0" index="0" speed="30.00" length="300.67" shape="1223.42,947.06,7.66 1223.42,646.48,0.18"/>
        <lane id="A2TL_1" index="1" speed="30.00" length="300.67" shape="1226.62,947.06,7.66 1226.62,646.48,0.18"/>
    </edge>
    <edge id="AA2A" from="AA" to="A" priority="-1">
        <lane id="AA2A_0" index="0" speed="30.00" length="307.78" shape="910.04,955.86,7.66 1217.82,955.86,7.66"/>
    </edge>
    <edge id="AB2A" from="AB" to="A" priority="-1">
        <lane id="AB2A_0" index="0" speed="30.00" length="307.78" shape="1226.62,1275.64,7.66 1226.62,967.86,7.66"/>
    </edge>
    <edge id="AC2A" from="AC" to="A" priority="-1">
        <lane id="AC2A_0" index="0" speed="30.00" length="307.78" shape="1546.40,959.06,7.66 1238.62,959.06,7.66"/>
    </edge>
    <edge id="B2BA" from="B" to="BA" priority="-1">
        <lane id="B2BA_0" index="0" speed="25.00" length="311.42" shape="1548.44,646.48,23.96 1548.44,957.90,23.96"/>
    </edge>
    <edge id="B2BB" from="B" to="BB" priority="-1">
        <lane id="B2BB_0" index="0" speed="25.00" length="311.42" shape="1554.04,637.68,23.96 1865.46,637.68,23.96"/>
    </edge>
    <edge id="B2BC" from="B" to="BC" priority="-1">
        <lane id="B2BC_0" index="0" speed="25.00" length="311.42" shape="1545.24,632.08,23.96 1545.24,320.66,23.96"/>
    </edge>
    <edge id="B2TL" from="B" to="TL" priority="-1">
        <lane id="B2TL_0" index="0" speed="25.00" length="305.16" shape="1539.64,640.88,23.96 1235.42,640.88"/>
    </edge>
    <edge id="BA2B" from="BA" to="B" priority="-1">
        <lane id="BA2B_0" index="0" speed="25.00" length="311.42" shape="1545.24,957.90,23.96 1545.24,646.48,23.96"/>
    </edge>
    <edge id="BB2B" from="BB" to="B" priority="-1">
        <lane id="BB2B_0" index="0" speed="25.00" length="311.42" shape="1865.46,640.88,23.96 1554.04,640.88,23.96"/>
    </edge>
    <edge id="BC2B" from="BC" to="B" priority="-1">
        <lane id="BC2B_0" index="0" speed="25.00" length="311.42" shape="1548.44,320.66,23.96 1548.44,632.08,23.96"/>
    </edge>
    <edge id="C2CA" from="C" to="CA" priority="-1">
        <lane id="C2CA_0" index="0" speed="30.00" length="312.44" shape="1235.42,318.04,7.40 1547.86,318.04,7.40"/>
    </edge>
    <edge id="C2CB" from="C" to="CB" priority="-1">
        <lane id="C2CB_0" index="0" speed="30.00" length="312.44" shape="1226.62,312.44,7.40 1226.62,0.00,7.40"/>
    </edge>
    <edge id="C2CC" from="C" to="CC" priority="-1">
        <lane id="C2CC_0" index="0" speed="30.00" length="312.44" shape="1221.02,321.24,7.40 908.58,321.24,7.40"/>
    </edge>
    <edge id="C2TL" from="C" to="TL" priority="-1">
        <lane id="C2TL_0" index="0" speed="30.00" length="305.32" shape="1229.82,326.84,7.24 1229.82,632.08,0.17"/>
    </edge>
    <edge id="CA2C" from="CA" to="C" priority="-1">
        <lane id="CA2C_0" index="0" speed="30.00" length="312.44" shape="1547.86,321.24,7.40 1235.42,321.24,7.40"/>
    </edge>
    <edge id="CB2C" from="CB" to="C" priority="-1">
        <lane id="CB2C_0" index="0" speed="30.00" length="312.44" shape="1229.82,0.00,7.40 1229.82,312.44,7.40"/>
    </edge>
    <edge id="CC2C" from="CC" to="C" priority="-1">
        <lane id="CC2C_0" index="0" speed="30.00" length="312.44" shape="908.58,318.04,7.40 1221.02,318.04,7.40"/>
    </edge>
    <edge id="D2DA" from="D" to="DA" priority="-1">
        <lane id="D2DA_0" index="0" speed="25.00" length="606.91" shape="612.51,632.08,7.49 612.51,25.17,7.49"/>
    </edge>
    <edge id="D2DB" from="D" to="DB" priority="-1">
        <lane id="D2DB_0" index="0" speed="25.00" length="606.91" shape="606.91,640.88,7.49 0.00,640.88,7.49"/>
    </edge>
    <edge id="D2DC" from="D" to="DC" priority="-1">
        <lane id="D2DC_0" index="0" speed="25.00" length="606.91" shape="615.71,646.48,7.49 615.71,1253.39,7.49"/>
    </edge>
    <edge id="D2TL" from="D" to="TL" priority="-1">
        <lane id="D2TL_0" index="0" speed="25.00" length="596.56" shape="621.31,637.68,7.40 1217.82,637.68,0.13"/>
    </edge>
    <edge id="DA2D" from="DA" to="D" priority="-1">
        <lane id="DA2D_0" index="0" speed="25.00" length="606.91" shape="615.71,25.17,7.49 615.71,632.08,7.49"/>
    </edge>
    <edge id="DB2D" from="DB" to="D" priority="-1">
        <lane id="DB2D_0" index="0" speed="25.00" length="606.91" shape="0.00,637.68,7.49 606.91,637.68,7.49"/>
    </edge>
    <edge id="DC2D" from="DC" to="D" priority="-1">
        <lane id="DC2D_0" index="0" speed="25.00" length="606.91" shape="612.51,1253.39,7.49 612.51,646.48,7.49"/>
    </edge>
    <edge id="TL2A" from="TL" to="A" priority="-1">
        <lane id="TL2A_0" index="0" speed="30.00" length="300.67" shape="1229.82,646.48,0.17 1229.82,947.06,7.66"/>
    </edge>
    <edge id="TL2B" from="TL" to="B" priority="-1">
        <lane id="TL2B_0" index="0" speed="25.00" length="305.16" shape="1235.42,637.68 1539.64,637.68,23.96"/>
    </edge>
    <edge id="TL2C" from="TL" to="C" priority="-1">
        <lane id="TL2C_0" index="0" speed="30.00" length="305.32" shape="1226.62,632.08,0.17 1226.62,326.84,7.24"/>
    </edge>
    <edge id="TL2D" from="TL" to="D" priority="-1">
        <lane id="TL2D_0" index="0" speed="25.00" length="596.56" shape="1217.82,640.88,0.13 621.31,640.88,7.40"/>
    </edge>

    <tlLogic id="A" type="static" programID="0" offset="0">
        <phase duration="39" state="GGrrGGrr"/>
        <phase duration="6"  state="yyrryyrr"/>
        <phase duration="39" state="rrGGrrGG"/>
        <phase duration="6"  state="rryyrryy"/>
    </tlLogic>
    <tlLogic id="AA" type="static" programID="0" offset="0">
        <phase duration="79" state="G"/>
        <phase duration="6"  state="y"/>
        <phase duration="5"  state="r"/>
    </tlLogic>
    <tlLogic id="AB" type="static" programID="0" offset="0">
        <phase duration="79" state="G"/>
        <phase duration="6"  state="y"/>
        <phase duration="5"  state="r"/>
    </tlLogic>
    <tlLogic id="AC" type="static" programID="0" offset="0">
        <phase duration="79" state="G"/>
        <phase duration="6"  state="y"/>
        <phase duration="5"  state="r"/>
    </tlLogic>
    <tlLogic id="B" type="static" programID="0" offset="0">
        <phase duration="40" state="GGrrGGrr"/>
        <phase duration="5"  state="yyrryyrr"/>
        <phase duration="40" state="rrGGrrGG"/>
        <phase duration="5"  state="rryyrryy"/>
    </tlLogic>
    <tlLogic id="BA" type="static" programID="0" offset="0">
        <phase duration="80" state="G"/>
        <phase duration="5"  state="y"/>
        <phase duration="5"  state="r"/>
    </tlLogic>
    <tlLogic id="BB" type="static" programID="0" offset="0">
        <phase duration="80" state="G"/>
        <phase duration="5"  state="y"/>
        <phase duration="5"  state="r"/>
    </tlLogic>
    <tlLogic id="BC" type="static" programID="0" offset="0">
        <phase duration="80" state="G"/>
        <phase duration="5"  state="y"/>
        <phase duration="5"  state="r"/>
    </tlLogic>
    <tlLogic id="C" type="static" programID="0" offset="0">
        <phase duration="39" state="GGrrGGrr"/>
        <phase duration="6"  state="yyrryyrr"/>
        <phase duration="39" state="rrGGrrGG"/>
        <phase duration="6"  state="rryyrryy"/>
    </tlLogic>
    <tlLogic id="CA" type="static" programID="0" offset="0">
        <phase duration="79" state="G"/>
        <phase duration="6"  state="y"/>
        <phase duration="5"  state="r"/>
    </tlLogic>
    <tlLogic id="CB" type="static" programID="0" offset="0">
        <phase duration="79" state="G"/>
        <phase duration="6"  state="y"/>
        <phase duration="5"  state="r"/>
    </tlLogic>
    <tlLogic id="CC" type="static" programID="0" offset="0">
        <phase duration="79" state="G"/>
        <phase duration="6"  state="y"/>
        <phase duration="5"  state="r"/>
    </tlLogic>
    <tlLogic id="D" type="static" programID="0" offset="0">
        <phase duration="40" state="GGrrGGrr"/>
        <phase duration="5"  state="yyrryyrr"/>
        <phase duration="40" state="rrGGrrGG"/>
        <phase duration="5"  state="rryyrryy"/>
    </tlLogic>
    <tlLogic id="DA" type="static" programID="0" offset="0">
        <phase duration="80" state="G"/>
        <phase duration="5"  state="y"/>
        <phase duration="5"  state="r"/>
    </tlLogic>
    <tlLogic id="DB" type="static" programID="0" offset="0">
        <phase duration="80" state="G"/>
        <phase duration="5"  state="y"/>
        <phase duration="5"  state="r"/>
    </tlLogic>
    <tlLogic id="DC" type="static" programID="0" offset="0">
        <phase duration="80" state="G"/>
        <phase duration="5"  state="y"/>
        <phase duration="5"  state="r"/>
    </tlLogic>
    <tlLogic id="TL" type="static" programID="0" offset="0">
        <phase duration="33" state="GGrsrGGsr"/>
        <phase duration="6"  state="yyrsryysr"/>
        <phase duration="6"  state="GGGsrrrsr"/>
        <phase duration="6"  state="yyysrrrsr"/>
        <phase duration="33" state="srrGGsrGG"/>
        <phase duration="6"  state="srryysryy"/>
    </tlLogic>

    <junction id="A" type="traffic_light" x="1228.22" y="957.46" z="7.66" incLanes="AB2A_0 AC2A_0 TL2A_0 AA2A_0" intLanes=":A_0_0 :A_1_0 :A_2_0 :A_3_0 :A_4_0 :A_5_0 :A_6_0 :A_7_0" shape="1225.02,967.86,7.66 1234.62,967.86,7.66 1234.73,965.66,7.66 1235.07,963.86,7.66 1235.62,962.46,7.66 1236.40,961.46,7.66 1237.40,960.86,7.66 1238.62,960.66,7.66 1238.62,951.06,7.66 1236.42,950.95,7.66 1234.62,950.62,7.66 1233.22,950.06,7.66 1232.22,949.29,7.66 1231.62,948.29,7.66 1231.42,947.06,7.66 1221.82,947.06,7.66 1221.71,949.26,7.66 1221.38,951.06,7.66 1220.82,952.46,7.66 1220.04,953.46,7.66 1219.04,954.06,7.66 1217.82,954.26,7.66 1217.82,963.86,7.66 1220.02,963.97,7.66 1221.82,964.31,7.66 1223.22,964.86,7.66 1224.22,965.64,7.66 1224.82,966.64,7.66">
        <request index="0" response="00000000" foes="00001000" cont="0"/>
        <request index="1" response="00000000" foes="11001000" cont="0"/>
        <request index="2" response="00100000" foes="00100000" cont="0"/>
        <request index="3" response="00100011" foes="00100011" cont="0"/>
        <request index="4" response="00000000" foes="10000000" cont="0"/>
        <request index="5" response="00000000" foes="10001100" cont="0"/>
        <request index="6" response="00000010" foes="00000010" cont="0"/>
        <request index="7" response="00110010" foes="00110010" cont="0"/>
    </junction>
    <junction id="AA" type="traffic_light" x="910.04" y="957.46" z="7.66" incLanes="A2AA_0 A2AA_1" intLanes=":AA_0_0" shape="910.04,957.46,7.66 910.04,963.86,7.66 910.04,957.46,7.66">
        <request index="0" response="0" foes="0" cont="0"/>
    </junction>
    <junction id="AB" type="traffic_light" x="1228.22" y="1275.64" z="7.66" incLanes="A2AB_0 A2AB_1" intLanes=":AB_0_0" shape="1228.22,1275.64,7.66 1234.62,1275.64,7.66 1228.22,1275.64,7.66">
        <request index="0" response="0" foes="0" cont="0"/>
    </junction>
    <junction id="AC" type="traffic_light" x="1546.40" y="957.46" z="7.66" incLanes="A2AC_0 A2AC_1" intLanes=":AC_0_0" shape="1546.40,957.46,7.66 1546.40,951.06,7.66 1546.40,957.46,7.66">
        <request index="0" response="0" foes="0" cont="0"/>
    </junction>
    <junction id="B" type="traffic_light" x="1546.84" y="639.28" z="23.96" incLanes="BA2B_0 BB2B_0 BC2B_0 TL2B_0" intLanes=":B_0_0 :B_1_0 :B_2_0 :B_3_0 :B_4_0 :B_5_0 :B_6_0 :B_7_0" shape="1543.64,646.48,23.96 1550.04,646.48,23.96 1550.49,644.26,23.96 1551.04,643.48,23.96 1551.82,642.93,23.96 1552.82,642.59,23.96 1554.04,642.48,23.96 1554.04,636.08,23.96 1551.82,635.64,23.96 1551.04,635.08,23.96 1550.49,634.30,23.96 1550.15,633.30,23.96 1550.04,632.08,23.96 1543.64,632.08,23.96 1543.20,634.30,23.96 1542.64,635.08,23.96 1541.86,635.64,23.96 1540.86,635.97,23.96 1539.64,636.08,23.96 1539.64,642.48,23.96 1541.86,642.93,23.96 1542.64,643.48,23.96 1543.20,644.26,23.96 1543.53,645.26,23.96">
        <request index="0" response="00000000" foes="00001000" cont="0"/>
        <request index="1" response="00000000" foes="11001000" cont="0"/>
        <request index="2" response="00100000" foes="00100000" cont="0"/>
        <request index="3" response="00100011" foes="00100011" cont="0"/>
        <request index="4" response="00000000" foes="10000000" cont="0"/>
        <request index="5" response="00000000" foes="10001100" cont="0"/>
        <request index="6" response="00000010" foes="00000010" cont="0"/>
        <request index="7" response="00110010" foes="00110010" cont="0"/>
    </junction>
    <junction id="BA" type="traffic_light" x="1546.84" y="957.90" z="23.96" incLanes="B2BA_0" intLanes=":BA_0_0" shape="1546.84,957.90,23.96 1550.04,957.90,23.96 1546.84,957.90,23.96">
        <request index="0" response="0" foes="0" cont="0"/>
    </junction>
    <junction id="BB" type="traffic_light" x="1865.46" y="639.28" z="23.96" incLanes="B2BB_0" intLanes=":BB_0_0" shape="1865.46,639.28,23.96 1865.46,636.08,23.96 1865.46,639.28,23.96">
        <request index="0" response="0" foes="0" cont="0"/>
    </junction>
    <junction id="BC" type="traffic_light" x="1546.84" y="320.66" z="23.96" incLanes="B2BC_0" intLanes=":BC_0_0" shape="1546.84,320.66,23.96 1543.64,320.66,23.96 1546.84,320.66,23.96">
        <request index="0" response="0" foes="0" cont="0"/>
    </junction>
    <junction id="C" type="traffic_light" x="1228.22" y="319.64" z="7.40" incLanes="TL2C_0 CA2C_0 CB2C_0 CC2C_0" intLanes=":C_0_0 :C_1_0 :C_2_0 :C_3_0 :C_4_0 :C_5_0 :C_6_0 :C_7_0" shape="1225.02,326.84,7.40 1231.42,326.84,7.40 1231.87,324.62,7.40 1232.42,323.84,7.40 1233.20,323.29,7.40 1234.20,322.95,7.40 1235.42,322.84,7.40 1235.42,316.44,7.40 1233.20,316.00,7.40 1232.42,315.44,7.40 1231.87,314.66,7.40 1231.53,313.66,7.40 1231.42,312.44,7.40 1225.02,312.44,7.40 1224.58,314.66,7.40 1224.02,315.44,7.40 1223.24,316.00,7.40 1222.24,316.33,7.40 1221.02,316.44,7.40 1221.02,322.84,7.40 1223.24,323.29,7.40 1224.02,323.84,7.40 1224.58,324.62,7.40 1224.91,325.62,7.40">
        <request index="0" response="00000000" foes="00001000" cont="0"/>
        <request index="1" response="00000000" foes="11001000" cont="0"/>
        <request index="2" response="00100000" foes="00100000" cont="0"/>
        <request index="3" response="00100011" foes="00100011" cont="0"/>
        <request index="4" response="00000000" foes="10000000" cont="0"/>
        <request index="5" response="00000000" foes="10001100" cont="0"/>
        <request index="6" response="00000010" foes="00000010" cont="0"/>
        <request index="7" response="00110010" foes="00110010" cont="0"/>
    </junction>
    <junction id="CA" type="traffic_light" x="1547.86" y="319.64" z="7.40" incLanes="C2CA_0" intLanes=":CA_0_0" shape="1547.86,319.64,7.40 1547.86,316.44,7.40 1547.86,319.64,7.40">
        <request index="0" response="0" foes="0" cont="0"/>
    </junction>
    <junction id="CB" type="traffic_light" x="1228.22" y="0.00" z="7.40" incLanes="C2CB_0" intLanes=":CB_0_0" shape="1228.22,0.00,7.40 1225.02,0.00,7.40 1228.22,0.00,7.40">
        <request index="0" response="0" foes="0" cont="0"/>
    </junction>
    <junction id="CC" type="traffic_light" x="908.58" y="319.64" z="7.40" incLanes="C2CC_0" intLanes=":CC_0_0" shape="908.58,319.64,7.40 908.58,322.84,7.40 908.58,319.64,7.40">
        <request index="0" response="0" foes="0" cont="0"/>
    </junction>
    <junction id="D" type="traffic_light" x="614.11" y="639.28" z="7.49" incLanes="DC2D_0 TL2D_0 DA2D_0 DB2D_0" intLanes=":D_0_0 :D_1_0 :D_2_0 :D_3_0 :D_4_0 :D_5_0 :D_6_0 :D_7_0" shape="610.91,646.48,7.49 617.31,646.48,7.49 617.76,644.26,7.49 618.31,643.48,7.49 619.09,642.93,7.49 620.09,642.59,7.49 621.31,642.48,7.49 621.31,636.08,7.49 619.09,635.64,7.49 618.31,635.08,7.49 617.76,634.30,7.49 617.42,633.30,7.49 617.31,632.08,7.49 610.91,632.08,7.49 610.47,634.30,7.49 609.91,635.08,7.49 609.13,635.64,7.49 608.13,635.97,7.49 606.91,636.08,7.49 606.91,642.48,7.49 609.13,642.93,7.49 609.91,643.48,7.49 610.47,644.26,7.49 610.80,645.26,7.49">
        <request index="0" response="00000000" foes="00001000" cont="0"/>
        <request index="1" response="00000000" foes="11001000" cont="0"/>
        <request index="2" response="00100000" foes="00100000" cont="0"/>
        <request index="3" response="00100011" foes="00100011" cont="0"/>
        <request index="4" response="00000000" foes="10000000" cont="0"/>
        <request index="5" response="00000000" foes="10001100" cont="0"/>
        <request index="6" response="00000010" foes="00000010" cont="0"/>
        <request index="7" response="00110010" foes="00110010" cont="0"/>
    </junction>