<?xml version="1.0" encoding="UTF-8"?>

<!-- generated on 2022-10-11 17:10:54 by Eclipse SUMO netconvert Version 1.14.1
<configuration xmlns:xsi="http://www.w3.org/2001/XMLSchema-instance" xsi:noNamespaceSchemaLocation="http://sumo.dlr.de/xsd/netconvertConfiguration.xsd">

    <input>
        <node-files value="../data/salt-lake-city/nodes.nod.xml"/>
        <edge-files value="../data/salt-lake-city/edges.edg.xml"/>
        <connection-files value="../data/salt-lake-city/connections.con.xml"/>
    </input>

    <output>
        <output-file value="../data/salt-lake-city/sumo/net/76.net.xml"/>
    </output>

    <tls_building>
        <tls.minor-left.max-speed value="1"/>
    </tls_building>

    <report>
        <verbose value="true"/>
    </report>

</configuration>
-->

<net version="1.9" junctionCornerDetail="5" limitTurnSpeed="5.50" xmlns:xsi="http://www.w3.org/2001/XMLSchema-instance" xsi:noNamespaceSchemaLocation="http://sumo.dlr.de/xsd/net_file.xsd">

    <location netOffset="330.47,642.44" convBoundary="0.00,0.00,937.18,963.15" origBoundary="-330.47,-642.44,606.71,320.71" projParameter="!"/>

    <edge id=":A_0" function="internal">
        <lane id=":A_0_0" index="0" speed="7.33" length="11.73" shape="325.67,816.39,2.88 325.12,813.94,2.88 323.47,812.19,2.88 320.72,811.14,2.88 316.87,810.79,2.88"/>
    </edge>
    <edge id=":A_1" function="internal">
        <lane id=":A_1_0" index="0" speed="30.00" length="27.43" shape="325.67,816.39,2.88 325.17,809.85,2.88 324.07,804.18,2.88 322.97,797.81,2.88 322.47,789.19,2.88"/>
        <lane id=":A_1_1" index="1" speed="30.00" length="27.43" shape="328.87,816.39,2.88 328.37,809.85,2.88 327.27,804.18,2.88 326.17,797.81,2.88 325.67,789.19,2.88"/>
    </edge>
    <edge id=":A_3" function="internal">
        <lane id=":A_3_0" index="0" speed="10.36" length="10.84" shape="328.87,816.39,2.88 329.82,809.74,2.88 331.94,806.21,2.88"/>
    </edge>
    <edge id=":A_16" function="internal">
        <lane id=":A_16_0" index="0" speed="10.36" length="13.67" shape="331.94,806.21,2.88 332.67,804.99,2.88 337.42,802.14,2.88 344.07,801.19,2.88"/>
    </edge>
    <edge id=":A_4" function="internal">
        <lane id=":A_4_0" index="0" speed="7.33" length="11.73" shape="344.07,807.59,2.88 341.62,808.14,2.88 339.87,809.79,2.88 338.82,812.54,2.88 338.47,816.39,2.88"/>
    </edge>
    <edge id=":A_5" function="internal">
        <lane id=":A_5_0" index="0" speed="30.00" length="27.43" shape="344.07,807.59,2.88 337.53,808.09,2.88 331.86,809.19,2.88 325.49,810.29,2.88 316.87,810.79,2.88"/>
        <lane id=":A_5_1" index="1" speed="30.00" length="27.43" shape="344.07,804.39,2.88 337.53,804.89,2.88 331.86,805.99,2.88 325.49,807.09,2.88 316.87,807.59,2.88"/>
    </edge>
    <edge id=":A_7" function="internal">
        <lane id=":A_7_0" index="0" speed="10.36" length="10.84" shape="344.07,804.39,2.88 337.42,803.44,2.88 333.88,801.32,2.88"/>
    </edge>
    <edge id=":A_17" function="internal">
        <lane id=":A_17_0" index="0" speed="10.36" length="13.67" shape="333.88,801.32,2.88 332.67,800.59,2.88 329.82,795.84,2.88 328.87,789.19,2.88"/>
    </edge>
    <edge id=":A_8" function="internal">
        <lane id=":A_8_0" index="0" speed="7.33" length="11.73" shape="335.27,789.19,2.88 335.82,791.64,2.88 337.47,793.39,2.88 340.22,794.44,2.88 344.07,794.79,2.88"/>
    </edge>
    <edge id=":A_9" function="internal">
        <lane id=":A_9_0" index="0" speed="30.00" length="27.43" shape="335.27,789.19,2.88 335.77,795.74,2.88 336.87,801.41,2.88 337.97,807.77,2.88 338.47,816.39,2.88"/>
        <lane id=":A_9_1" index="1" speed="30.00" length="27.43" shape="332.07,789.19,2.88 332.57,795.74,2.88 333.67,801.41,2.88 334.77,807.77,2.88 335.27,816.39,2.88"/>
    </edge>
    <edge id=":A_11" function="internal">
        <lane id=":A_11_0" index="0" speed="10.36" length="10.84" shape="332.07,789.19,2.88 331.12,795.84,2.88 329.00,799.38,2.88"/>
    </edge>
    <edge id=":A_18" function="internal">
        <lane id=":A_18_0" index="0" speed="10.36" length="13.67" shape="329.00,799.38,2.88 328.27,800.59,2.88 323.52,803.44,2.88 316.87,804.39,2.88"/>
    </edge>
    <edge id=":A_12" function="internal">
        <lane id=":A_12_0" index="0" speed="7.33" length="11.73" shape="316.87,797.99,2.88 319.32,797.44,2.88 321.07,795.79,2.88 322.12,793.04,2.88 322.47,789.19,2.88"/>
    </edge>
    <edge id=":A_13" function="internal">
        <lane id=":A_13_0" index="0" speed="30.00" length="27.43" shape="316.87,797.99,2.88 323.41,797.49,2.88 329.09,796.39,2.88 335.45,795.29,2.88 344.07,794.79,2.88"/>
        <lane id=":A_13_1" index="1" speed="30.00" length="27.43" shape="316.87,801.19,2.88 323.41,800.69,2.88 329.09,799.59,2.88 335.45,798.49,2.88 344.07,797.99,2.88"/>
    </edge>
    <edge id=":A_15" function="internal">
        <lane id=":A_15_0" index="0" speed="10.36" length="10.84" shape="316.87,801.19,2.88 323.52,802.14,2.88 327.06,804.27,2.88"/>
    </edge>
    <edge id=":A_19" function="internal">
        <lane id=":A_19_0" index="0" speed="10.36" length="13.67" shape="327.06,804.27,2.88 328.27,804.99,2.88 331.12,809.74,2.88 332.07,816.39,2.88"/>
    </edge>
    <edge id=":AA_0" function="internal">
        <lane id=":AA_0_0" index="0" speed="3.65" length="4.67" shape="170.12,804.39,2.88 168.92,803.59,2.88 168.52,802.79,2.88 168.92,801.99,2.88 170.12,801.19,2.88"/>
    </edge>
    <edge id=":AB_0" function="internal">
        <lane id=":AB_0_0" index="0" speed="3.65" length="4.67" shape="332.07,963.15,2.88 331.27,964.35,2.88 330.47,964.75,2.88 329.67,964.35,2.88 328.87,963.15,2.88"/>
    </edge>
    <edge id=":AC_0" function="internal">
        <lane id=":AC_0_0" index="0" speed="3.65" length="4.67" shape="490.82,801.19,2.88 492.02,801.99,2.88 492.42,802.79,2.88 492.02,803.59,2.88 490.82,804.39,2.88"/>
    </edge>
    <edge id=":B_0" function="internal">
        <lane id=":B_0_0" index="0" speed="6.51" length="9.03" shape="632.23,649.64,0.65 631.88,647.19,0.64 630.83,645.44,0.64 629.08,644.39,0.64 626.63,644.04,0.63"/>
    </edge>
    <edge id=":B_1" function="internal">
        <lane id=":B_1_0" index="0" speed="25.00" length="14.40" shape="632.23,649.64,0.65 632.23,635.24,0.65"/>
    </edge>
    <edge id=":B_2" function="internal">
        <lane id=":B_2_0" index="0" speed="6.51" length="9.03" shape="641.03,644.04,0.65 638.58,644.39,0.65 636.83,645.44,0.65 635.78,647.19,0.65 635.43,649.64,0.65"/>
    </edge>
    <edge id=":B_3" function="internal">
        <lane id=":B_3_0" index="0" speed="25.00" length="14.40" shape="641.03,644.04,0.65 626.63,644.04,0.63"/>
    </edge>
    <edge id=":B_4" function="internal">
        <lane id=":B_4_0" index="0" speed="6.51" length="9.03" shape="635.43,635.24,0.65 635.78,637.69,0.65 636.83,639.44,0.65 638.58,640.49,0.65 641.03,640.84,0.65"/>
    </edge>
    <edge id=":B_5" function="internal">
        <lane id=":B_5_0" index="0" speed="25.00" length="14.40" shape="635.43,635.24,0.65 635.43,649.64,0.65"/>
    </edge>
    <edge id=":B_6" function="internal">
        <lane id=":B_6_0" index="0" speed="6.51" length="9.03" shape="626.63,640.84,0.63 629.08,640.49,0.64 630.83,639.44,0.64 631.88,637.69,0.64 632.23,635.24,0.65"/>
    </edge>
    <edge id=":B_7" function="internal">
        <lane id=":B_7_0" index="0" speed="25.00" length="14.40" shape="626.63,640.84,0.63 641.03,640.84,0.65"/>
    </edge>
    <edge id=":BA_0" function="internal">
        <lane id=":BA_0_0" index="0" speed="3.65" length="4.67" shape="635.43,945.80,0.65 634.63,947.00,0.65 633.83,947.40,0.65 633.03,947.00,0.65 632.23,945.80,0.65"/>
    </edge>
    <edge id=":BB_0" function="internal">
        <lane id=":BB_0_0" index="0" speed="3.65" length="4.67" shape="937.18,640.84,0.65 938.38,641.64,0.65 938.78,642.44,0.65 938.38,643.24,0.65 937.18,644.04,0.65"/>
    </edge>
    <edge id=":BC_0" function="internal">
        <lane id=":BC_0_0" index="0" speed="3.65" length="4.67" shape="632.23,339.08,0.65 633.03,337.88,0.65 633.83,337.48,0.65 634.63,337.88,0.65 635.43,339.08,0.65"/>
    </edge>
    <edge id=":C_0" function="internal">
        <lane id=":C_0_0" index="0" speed="7.33" length="11.73" shape="325.67,334.82,-3.84 325.12,332.37,-3.88 323.47,330.62,-3.92 320.72,329.57,-3.96 316.87,329.22,-4.01"/>
    </edge>
    <edge id=":C_1" function="internal">
        <lane id=":C_1_0" index="0" speed="30.00" length="27.43" shape="325.67,334.82,-3.84 325.17,328.28,-3.88 324.07,322.61,-3.92 322.97,316.24,-3.96 322.47,307.62,-4.01"/>
        <lane id=":C_1_1" index="1" speed="30.00" length="27.43" shape="328.87,334.82,-3.84 328.37,328.28,-3.88 327.27,322.61,-3.92 326.17,316.24,-3.96 325.67,307.62,-4.01"/>
    </edge>
    <edge id=":C_3" function="internal">
        <lane id=":C_3_0" index="0" speed="10.36" length="10.84" shape="328.87,334.82,-3.84 329.82,328.17,-3.89 331.94,324.63,-3.92"/>
    </edge>
    <edge id=":C_16" function="internal">
        <lane id=":C_16_0" index="0" speed="10.36" length="13.67" shape="331.94,324.63,-3.92 332.67,323.42,-3.93 337.42,320.57,-3.97 344.07,319.62,-4.01"/>
    </edge>
    <edge id=":C_4" function="internal">
        <lane id=":C_4_0" index="0" speed="7.33" length="11.73" shape="344.07,326.02,-4.01 341.62,326.57,-3.98 339.87,328.22,-3.94 338.82,330.97,-3.90 338.47,334.82,-3.84"/>
    </edge>
    <edge id=":C_5" function="internal">
        <lane id=":C_5_0" index="0" speed="30.00" length="27.43" shape="344.07,326.02,-4.01 337.53,326.52,-4.01 331.86,327.62,-4.01 325.49,328.72,-4.01 316.87,329.22,-4.01"/>
        <lane id=":C_5_1" index="1" speed="30.00" length="27.43" shape="344.07,322.82,-4.01 337.53,323.32,-4.01 331.86,324.42,-4.01 325.49,325.52,-4.01 316.87,326.02,-4.01"/>
    </edge>
    <edge id=":C_7" function="internal">
        <lane id=":C_7_0" index="0" speed="10.36" length="10.84" shape="344.07,322.82,-4.01 337.42,321.87,-4.01 333.88,319.75,-4.01"/>
    </edge>
    <edge id=":C_17" function="internal">
        <lane id=":C_17_0" index="0" speed="10.36" length="13.67" shape="333.88,319.75,-4.01 332.67,319.02,-4.01 329.82,314.27,-4.01 328.87,307.62,-4.01"/>
    </edge>
    <edge id=":C_8" function="internal">
        <lane id=":C_8_0" index="0" speed="7.33" length="11.73" shape="335.27,307.62,-4.01 335.82,310.07,-4.01 337.47,311.82,-4.01 340.22,312.87,-4.01 344.07,313.22,-4.01"/>
    </edge>
    <edge id=":C_9" function="internal">
        <lane id=":C_9_0" index="0" speed="30.00" length="27.43" shape="335.27,307.62,-4.01 335.77,314.16,-3.97 336.87,319.84,-3.94 337.97,326.20,-3.90 338.47,334.82,-3.84"/>
        <lane id=":C_9_1" index="1" speed="30.00" length="27.43" shape="332.07,307.62,-4.01 332.57,314.16,-3.97 333.67,319.84,-3.94 334.77,326.20,-3.90 335.27,334.82,-3.84"/>
    </edge>
    <edge id=":C_11" function="internal">
        <lane id=":C_11_0" index="0" speed="10.36" length="10.84" shape="332.07,307.62,-4.01 331.12,314.27,-4.01 329.00,317.81,-4.01"/>
    </edge>
    <edge id=":C_18" function="internal">
        <lane id=":C_18_0" index="0" speed="10.36" length="13.67" shape="329.00,317.81,-4.01 328.27,319.02,-4.01 323.52,321.87,-4.01 316.87,322.82,-4.01"/>
    </edge>
    <edge id=":C_12" function="internal">
        <lane id=":C_12_0" index="0" speed="7.33" length="11.73" shape="316.87,316.42,-4.01 319.32,315.87,-4.01 321.07,314.22,-4.01 322.12,311.47,-4.01 322.47,307.62,-4.01"/>
    </edge>
    <edge id=":C_13" function="internal">
        <lane id=":C_13_0" index="0" speed="30.00" length="27.43" shape="316.87,316.42,-4.01 323.41,315.92,-4.01 329.09,314.82,-4.01 335.45,313.72,-4.01 344.07,313.22,-4.01"/>
        <lane id=":C_13_1" index="1" speed="30.00" length="27.43" shape="316.87,319.62,-4.01 323.41,319.12,-4.01 329.09,318.02,-4.01 335.45,316.92,-4.01 344.07,316.42,-4.01"/>
    </edge>
    <edge id=":C_15" function="internal">
        <lane id=":C_15_0" index="0" speed="10.36" length="10.84" shape="316.87,319.62,-4.01 323.52,320.57,-3.97 327.06,322.69,-3.94"/>
    </edge>
    <edge id=":C_19" function="internal">
        <lane id=":C_19_0" index="0" speed="10.36" length="13.67" shape="327.06,322.69,-3.94 328.27,323.42,-3.93 331.12,328.17,-3.89 332.07,334.82,-3.84"/>
    </edge>
    <edge id=":CA_0" function="internal">
        <lane id=":CA_0_0" index="0" speed="3.65" length="4.67" shape="651.69,319.62,-4.01 652.89,320.42,-4.01 653.29,321.22,-4.01 652.89,322.02,-4.01 651.69,322.82,-4.01"/>
    </edge>
    <edge id=":CB_0" function="internal">
        <lane id=":CB_0_0" index="0" speed="3.65" length="4.67" shape="328.87,-0.00,-4.01 329.67,-1.20,-4.01 330.47,-1.60,-4.01 331.27,-1.20,-4.01 332.07,0.00,-4.01"/>
    </edge>
    <edge id=":CC_0" function="internal">
        <lane id=":CC_0_0" index="0" speed="3.65" length="4.67" shape="9.25,322.82,-4.01 8.05,322.02,-4.01 7.65,321.22,-4.01 8.05,320.42,-4.01 9.25,319.62,-4.01"/>
    </edge>
    <edge id=":D_0" function="internal">
        <lane id=":D_0_0" index="0" speed="6.51" length="9.03" shape="163.64,649.64,0.35 163.29,647.19,0.35 162.24,645.44,0.35 160.49,644.39,0.35 158.04,644.04,0.35"/>
    </edge>
    <edge id=":D_1" function="internal">
        <lane id=":D_1_0" index="0" speed="25.00" length="14.40" shape="163.64,649.64,0.35 163.64,635.24,0.35"/>
    </edge>
    <edge id=":D_2" function="internal">
        <lane id=":D_2_0" index="0" speed="6.51" length="9.03" shape="172.44,644.04,0.34 169.99,644.39,0.34 168.24,645.44,0.34 167.19,647.19,0.35 166.84,649.64,0.35"/>
    </edge>
    <edge id=":D_3" function="internal">
        <lane id=":D_3_0" index="0" speed="25.00" length="14.40" shape="172.44,644.04,0.34 158.04,644.04,0.35"/>
    </edge>
    <edge id=":D_4" function="internal">
        <lane id=":D_4_0" index="0" speed="6.51" length="9.03" shape="166.84,635.24,0.35 167.19,637.69,0.35 168.24,639.44,0.34 169.99,640.49,0.34 172.44,640.84,0.34"/>
    </edge>
    <edge id=":D_5" function="internal">
        <lane id=":D_5_0" index="0" speed="25.00" length="14.40" shape="166.84,635.24,0.35 166.84,649.64,0.35"/>
    </edge>
    <edge id=":D_6" function="internal">
        <lane id=":D_6_0" index="0" speed="6.51" length="9.03" shape="158.04,640.84,0.35 160.49,640.49,0.35 162.24,639.44,0.35 163.29,637.69,0.35 163.64,635.24,0.35"/>
    </edge>
    <edge id=":D_7" function="internal">
        <lane id=":D_7_0" index="0" speed="25.00" length="14.40" shape="158.04,640.84,0.35 172.44,640.84,0.34"/>
    </edge>
    <edge id=":DA_0" function="internal">
        <lane id=":DA_0_0" index="0" speed="3.65" length="4.67" shape="163.64,477.21,0.35 164.44,476.01,0.35 165.24,475.61,0.35 166.04,476.01,0.35 166.84,477.21,0.35"/>
    </edge>
    <edge id=":DB_0" function="internal">
        <lane id=":DB_0_0" index="0" speed="3.65" length="4.67" shape="-0.00,644.04,0.35 -1.20,643.24,0.35 -1.60,642.44,0.35 -1.20,641.64,0.35 -0.00,640.84,0.35"/>
    </edge>
    <edge id=":DC_0" function="internal">
        <lane id=":DC_0_0" index="0" speed="3.65" length="4.67" shape="166.84,807.68,0.35 166.04,808.88,0.35 165.24,809.28,0.35 164.44,808.88,0.35 163.64,807.68,0.35"/>
    </edge>
    <edge id=":TL_0" function="internal">
        <lane id=":TL_0_0" index="0" speed="6.51" length="9.03" shape="322.47,649.64,0.14 322.12,647.19,0.11 321.07,645.44,0.09 319.32,644.39,0.06 316.87,644.04,0.03"/>
    </edge>
    <edge id=":TL_1" function="internal">
        <lane id=":TL_1_0" index="0" speed="30.00" length="14.71" shape="322.47,649.64,0.14 322.97,645.32,0.07 324.07,642.44,0.03 325.17,639.56,-0.02 325.67,635.24,-0.09"/>
        <lane id=":TL_1_1" index="1" speed="30.00" length="14.71" shape="325.67,649.64,0.14 326.17,645.32,0.07 327.27,642.44,0.03 328.37,639.56,-0.02 328.87,635.24,-0.09"/>
        <lane id=":TL_1_2" index="2" speed="30.00" length="14.71" shape="328.87,649.64,0.14 328.87,635.24,-0.09"/>
    </edge>
    <edge id=":TL_4" function="internal">
        <lane id=":TL_4_0" index="0" speed="9.32" length="3.97" shape="328.87,649.64,0.14 329.82,645.79,0.12"/>
    </edge>
    <edge id=":TL_13" function="internal">
        <lane id=":TL_13_0" index="0" speed="9.32" length="15.66" shape="329.82,645.79,0.12 332.67,643.04,0.10 337.42,641.39,0.07 344.07,640.84,0.03"/>
    </edge>
    <edge id=":TL_5" function="internal">
        <lane id=":TL_5_0" index="0" speed="7.33" length="11.73" shape="344.07,644.04,0.03 340.22,644.39,0.06 337.47,645.44,0.09 335.82,647.19,0.11 335.27,649.64,0.13"/>
    </edge>
    <edge id=":TL_6" function="internal">
        <lane id=":TL_6_0" index="0" speed="25.00" length="27.20" shape="344.07,644.04,0.03 316.87,644.04,0.03"/>
    </edge>
    <edge id=":TL_7" function="internal">
        <lane id=":TL_7_0" index="0" speed="6.51" length="9.03" shape="338.47,635.24,-0.09 338.82,637.69,-0.06 339.87,639.44,-0.03 341.62,640.49,-0.00 344.07,640.84,0.03"/>
    </edge>
    <edge id=":TL_8" function="internal">
        <lane id=":TL_8_0" index="0" speed="30.00" length="14.87" shape="338.47,635.24,-0.09 337.97,639.56,-0.03 336.87,642.44,0.02 335.77,645.32,0.07 335.27,649.64,0.13"/>
        <lane id=":TL_8_1" index="1" speed="30.00" length="14.87" shape="335.27,635.24,-0.09 334.77,639.56,-0.03 333.67,642.44,0.02 332.57,645.32,0.07 332.07,649.64,0.13"/>
    </edge>
    <edge id=":TL_10" function="internal">
        <lane id=":TL_10_0" index="0" speed="9.32" length="3.03" shape="332.07,635.24,-0.09 331.34,638.18,-0.07"/>
    </edge>
    <edge id=":TL_14" function="internal">
        <lane id=":TL_14_0" index="0" speed="9.32" length="16.60" shape="331.34,638.18,-0.07 331.12,639.09,-0.07 328.27,641.84,-0.04 323.52,643.49,-0.01 316.87,644.04,0.03"/>
    </edge>
    <edge id=":TL_11" function="internal">
        <lane id=":TL_11_0" index="0" speed="7.33" length="11.73" shape="316.87,640.84,0.03 320.72,640.49,-0.01 323.47,639.44,-0.04 325.12,637.69,-0.06 325.67,635.24,-0.09"/>
    </edge>
    <edge id=":TL_12" function="internal">
        <lane id=":TL_12_0" index="0" speed="25.00" length="27.20" shape="316.87,640.84,0.03 344.07,640.84,0.03"/>
    </edge>

    <edge id="A2AA" from="A" to="AA" priority="-1">
        <lane id="A2AA_0" index="0" speed="30.00" length="146.75" shape="316.87,810.79,2.88 170.12,810.79,2.88"/>
        <lane id="A2AA_1" index="1" speed="30.00" length="146.75" shape="316.87,807.59,2.88 170.12,807.59,2.88"/>
        <lane id="A2AA_2" index="2" speed="30.00" length="146.75" shape="316.87,804.39,2.88 170.12,804.39,2.88"/>
    </edge>
    <edge id="A2AB" from="A" to="AB" priority="-1">
        <lane id="A2AB_0" index="0" speed="30.00" length="146.75" shape="338.47,816.39,2.88 338.47,963.15,2.88"/>
        <lane id="A2AB_1" index="1" speed="30.00" length="146.75" shape="335.27,816.39,2.88 335.27,963.15,2.88"/>
        <lane id="A2AB_2" index="2" speed="30.00" length="146.75" shape="332.07,816.39,2.88 332.07,963.15,2.88"/>
    </edge>
    <edge id="A2AC" from="A" to="AC" priority="-1">
        <lane id="A2AC_0" index="0" speed="30.00" length="146.75" shape="344.07,794.79,2.88 490.82,794.79,2.88"/>
        <lane id="A2AC_1" index="1" speed="30.00" length="146.75" shape="344.07,797.99,2.88 490.82,797.99,2.88"/>
        <lane id="A2AC_2" index="2" speed="30.00" length="146.75" shape="344.07,801.19,2.88 490.82,801.19,2.88"/>
    </edge>
    <edge id="A2TL" from="A" to="TL" priority="-1">
        <lane id="A2TL_0" index="0" speed="30.00" length="139.58" shape="322.47,789.19,2.88 322.47,649.64,0.14"/>
        <lane id="A2TL_1" index="1" speed="30.00" length="139.58" shape="325.67,789.19,2.88 325.67,649.64,0.14"/>
        <lane id="A2TL_2" index="2" speed="30.00" length="139.58" shape="328.87,789.19,2.88 328.87,649.64,0.14"/>
    </edge>
    <edge id="AA2A" from="AA" to="A" priority="-1">
        <lane id="AA2A_0" index="0" speed="30.00" length="146.75" shape="170.12,797.99,2.88 316.87,797.99,2.88"/>
        <lane id="AA2A_1" index="1" speed="30.00" length="146.75" shape="170.12,801.19,2.88 316.87,801.19,2.88"/>
    </edge>
    <edge id="AB2A" from="AB" to="A" priority="-1">
        <lane id="AB2A_0" index="0" speed="30.00" length="146.75" shape="325.67,963.15,2.88 325.67,816.39,2.88"/>
        <lane id="AB2A_1" index="1" speed="30.00" length="146.75" shape="328.87,963.15,2.88 328.87,816.39,2.88"/>
    </edge>
    <edge id="AC2A" from="AC" to="A" priority="-1">
        <lane id="AC2A_0" index="0" speed="30.00" length="146.75" shape="490.82,807.59,2.88 344.07,807.59,2.88"/>
        <lane id="AC2A_1" index="1" speed="30.00" length="146.75" shape="490.82,804.39,2.88 344.07,804.39,2.88"/>
    </edge>
    <edge id="B2BA" from="B" to="BA" priority="-1">
        <lane id="B2BA_0" index="0" speed="25.00" length="296.16" shape="635.43,649.64,0.65 635.43,945.80,0.65"/>
    </edge>
    <edge id="B2BB" from="B" to="BB" priority="-1">
        <lane id="B2BB_0" index="0" speed="25.00" length="296.16" shape="641.03,640.84,0.65 937.18,640.84,0.65"/>
    </edge>
    <edge id="B2BC" from="B" to="BC" priority="-1">
        <lane id="B2BC_0" index="0" speed="25.00" length="296.16" shape="632.23,635.24,0.65 632.23,339.08,0.65"/>
    </edge>
    <edge id="B2TL" from="B" to="TL" priority="-1">
        <lane id="B2TL_0" index="0" speed="25.00" length="282.56" shape="626.63,644.04,0.63 344.07,644.04,0.03"/>
    </edge>
    <edge id="BA2B" from="BA" to="B" priority="-1">
        <lane id="BA2B_0" index="0" speed="25.00" length="296.16" shape="632.23,945.80,0.65 632.23,649.64,0.65"/>
    </edge>
    <edge id="BB2B" from="BB" to="B" priority="-1">
        <lane id="BB2B_0" index="0" speed="25.00" length="296.16" shape="937.18,644.04,0.65 641.03,644.04,0.65"/>
    </edge>
    <edge id="BC2B" from="BC" to="B" priority="-1">
        <lane id="BC2B_0" index="0" speed="25.00" length="296.16" shape="635.43,339.08,0.65 635.43,635.24,0.65"/>
    </edge>
    <edge id="C2CA" from="C" to="CA" priority="-1">
        <lane id="C2CA_0" index="0" speed="30.00" length="307.62" shape="344.07,313.22,-4.01 651.69,313.22,-4.01"/>
        <lane id="C2CA_1" index="1" speed="30.00" length="307.62" shape="344.07,316.42,-4.01 651.69,316.42,-4.01"/>
        <lane id="C2CA_2" index="2" speed="30.00" length="307.62" shape="344.07,319.62,-4.01 651.69,319.62,-4.01"/>
    </edge>
    <edge id="C2CB" from="C" to="CB" priority="-1">
        <lane id="C2CB_0" index="0" speed="30.00" length="307.62" shape="322.47,307.62,-4.01 322.47,-0.00,-4.01"/>
        <lane id="C2CB_1" index="1" speed="30.00" length="307.62" shape="325.67,307.62,-4.01 325.67,-0.00,-4.01"/>
        <lane id="C2CB_2" index="2" speed="30.00" length="307.62" shape="328.87,307.62,-4.01 328.87,-0.00,-4.01"/>
    </edge>
    <edge id="C2CC" from="C" to="CC" priority="-1">
        <lane id="C2CC_0" index="0" speed="30.00" length="307.62" shape="316.87,329.22,-4.01 9.25,329.22,-4.01"/>
        <lane id="C2CC_1" index="1" speed="30.00" length="307.62" shape="316.87,326.02,-4.01 9.25,326.02,-4.01"/>
        <lane id="C2CC_2" index="2" speed="30.00" length="307.62" shape="316.87,322.82,-4.01 9.25,322.82,-4.01"/>
    </edge>
    <edge id="C2TL" from="C" to="TL" priority="-1">
        <lane id="C2TL_0" index="0" speed="30.00" length="300.44" shape="338.47,334.82,-3.84 338.47,635.24,-0.09"/>
        <lane id="C2TL_1" index="1" speed="30.00" length="300.44" shape="335.27,334.82,-3.84 335.27,635.24,-0.09"/>
        <lane id="C2TL_2" index="2" speed="30.00" length="300.44" shape="332.07,334.82,-3.84 332.07,635.24,-0.09"/>
    </edge>
    <edge id="CA2C" from="CA" to="C" priority="-1">
        <lane id="CA2C_0" index="0" speed="30.00" length="307.62" shape="651.69,326.02,-4.01 344.07,326.02,-4.01"/>
        <lane id="CA2C_1" index="1" speed="30.00" length="307.62" shape="651.69,322.82,-4.01 344.07,322.82,-4.01"/>
    </edge>
    <edge id="CB2C" from="CB" to="C" priority="-1">
        <lane id="CB2C_0" index="0" speed="30.00" length="307.62" shape="335.27,0.00,-4.01 335.27,307.62,-4.01"/>
        <lane id="CB2C_1" index="1" speed="30.00" length="307.62" shape="332.07,0.00,-4.01 332.07,307.62,-4.01"/>
    </edge>
    <edge id="CC2C" from="CC" to="C" priority="-1">
        <lane id="CC2C_0" index="0" speed="30.00" length="307.62" shape="9.25,316.42,-4.01 316.87,316.42,-4.01"/>
        <lane id="CC2C_1" index="1" speed="30.00" length="307.62" shape="9.25,319.62,-4.01 316.87,319.62,-4.01"/>
    </edge>
    <edge id="D2DA" from="D" to="DA" priority="-1">
        <lane id="D2DA_0" index="0" speed="25.00" length="158.04" shape="163.64,635.24,0.35 163.64,477.21,0.35"/>
    </edge>
    <edge id="D2DB" from="D" to="DB" priority="-1">
        <lane id="D2DB_0" index="0" speed="25.00" length="158.04" shape="158.04,644.04,0.35 -0.00,644.04,0.35"/>
    </edge>
    <edge id="D2DC" from="D" to="DC" priority="-1">
        <lane id="D2DC_0" index="0" speed="25.00" length="158.04" shape="166.84,649.64,0.35 166.84,807.68,0.35"/>
    </edge>
    <edge id="D2TL" from="D" to="TL" priority="-1">
        <lane id="D2TL_0" index="0" speed="25.00" length="144.44" shape="172.44,640.84,0.34 316.87,640.84,0.03"/>
    </edge>
    <edge id="DA2D" from="DA" to="D" priority="-1">
        <lane id="DA2D_0" index="0" speed="25.00" length="158.04" shape="166.84,477.21,0.35 166.84,635.24,0.35"/>
    </edge>
    <edge id="DB2D" from="DB" to="D" priority="-1">
        <lane id="DB2D_0" index="0" speed="25.00" length="158.04" shape="-0.00,640.84,0.35 158.04,640.84,0.35"/>
    </edge>
    <edge id="DC2D" from="DC" to="D" priority="-1">
        <lane id="DC2D_0" index="0" speed="25.00" length="158.04" shape="163.64,807.68,0.35 163.64,649.64,0.35"/>
    </edge>
    <edge id="TL2A" from="TL" to="A" priority="-1">
        <lane id="TL2A_0" index="0" speed="30.00" length="139.58" shape="335.27,649.64,0.13 335.27,789.19,2.88"/>
        <lane id="TL2A_1" index="1" speed="30.00" length="139.58" shape="332.07,649.64,0.13 332.07,789.19,2.88"/>
    </edge>
    <edge id="TL2B" from="TL" to="B" priority="-1">
        <lane id="TL2B_0" index="0" speed="25.00" length="282.56" shape="344.07,640.84,0.03 626.63,640.84,0.63"/>
    </edge>
    <edge id="TL2C" from="TL" to="C" priority="-1">
        <lane id="TL2C_0" index="0" speed="30.00" length="300.44" shape="325.67,635.24,-0.09 325.67,334.82,-3.84"/>
        <lane id="TL2C_1" index="1" speed="30.00" length="300.44" shape="328.87,635.24,-0.09 328.87,334.82,-3.84"/>
    </edge>
    <edge id="TL2D" from="TL" to="D" priority="-1">
        <lane id="TL2D_0" index="0" speed="25.00" length="144.44" shape="316.87,644.04,0.03 172.44,644.04,0.34"/>
    </edge>

    <tlLogic id="A" type="static" programID="0" offset="0">
        <phase duration="39" state="GGGgrrrrGGGgrrrr"/>
        <phase duration="6"  state="yyyyrrrryyyyrrrr"/>
        <phase duration="39" state="rrrrGGGgrrrrGGGg"/>
        <phase duration="6"  state="rrrryyyyrrrryyyy"/>
    </tlLogic>
    <tlLogic id="AA" type="static" programID="0" offset="0">
        <phase duration="79" state="G"/>
        <phase duration="6"  state="y"/>
        <phase duration="5"  state="r"/>
    </tlLogic>
    <tlLogic id="AB" type="static" programID="0" offset="0">
        <phase duration="79" state="G"/>
        <phase duration="6"  state="y"/>
        <phase duration="5"  state="r"/>
    </tlLogic>
    <tlLogic id="AC" type="static" programID="0" offset="0">
        <phase duration="79" state="G"/>
        <phase duration="6"  state="y"/>
        <phase duration="5"  state="r"/>
    </tlLogic>
    <tlLogic id="B" type="static" programID="0" offset="0">
        <phase duration="40" state="GGrrGGrr"/>
        <phase duration="5"  state="yyrryyrr"/>
        <phase duration="40" state="rrGGrrGG"/>
        <phase duration="5"  state="rryyrryy"/>
    </tlLogic>
    <tlLogic id="BA" type="static" programID="0" offset="0">
        <phase duration="80" state="G"/>
        <phase duration="5"  state="y"/>
        <phase duration="5"  state="r"/>
    </tlLogic>
    <tlLogic id="BB" type="static" programID="0" offset="0">
        <phase duration="80" state="G"/>
        <phase duration="5"  state="y"/>
        <phase duration="5"  state="r"/>
    </tlLogic>
    <tlLogic id="BC" type="static" programID="0" offset="0">
        <phase duration="80" state="G"/>
        <phase duration="5"  state="y"/>
        <phase duration="5"  state="r"/>
    </tlLogic>
    <tlLogic id="C" type="static" programID="0" offset="0">
        <phase duration="39" state="GGGgrrrrGGGgrrrr"/>
        <phase duration="6"  state="yyyyrrrryyyyrrrr"/>
        <phase duration="39" state="rrrrGGGgrrrrGGGg"/>
        <phase duration="6"  state="rrrryyyyrrrryyyy"/>
    </tlLogic>
    <tlLogic id="CA" type="static" programID="0" offset="0">
        <phase duration="79" state="G"/>
        <phase duration="6"  state="y"/>
        <phase duration="5"  state="r"/>
    </tlLogic>
    <tlLogic id="CB" type="static" programID="0" offset="0">
        <phase duration="79" state="G"/>
        <phase duration="6"  state="y"/>
        <phase duration="5"  state="r"/>
    </tlLogic>
    <tlLogic id="CC" type="static" programID="0" offset="0">
        <phase duration="79" state="G"/>
        <phase duration="6"  state="y"/>
        <phase duration="5"  state="r"/>
    </tlLogic>
    <tlLogic id="D" type="static" programID="0" offset="0">
        <phase duration="40" state="GGrrGGrr"/>
        <phase duration="5"  state="yyrryyrr"/>
        <phase duration="40" state="rrGGrrGG"/>
        <phase duration="5"  state="rryyrryy"/>
    </tlLogic>
    <tlLogic id="DA" type="static" programID="0" offset="0">
        <phase duration="80" state="G"/>
        <phase duration="5"  state="y"/>
        <phase duration="5"  state="r"/>
    </tlLogic>
    <tlLogic id="DB" type="static" programID="0" offset="0">
        <phase duration="80" state="G"/>
        <phase duration="5"  state="y"/>
        <phase duration="5"  state="r"/>
    </tlLogic>
    <tlLogic id="DC" type="static" programID="0" offset="0">
        <phase duration="80" state="G"/>
        <phase duration="5"  state="y"/>
        <phase duration="5"  state="r"/>
    </tlLogic>