<?xml version="1.0" encoding="UTF-8"?>

<!-- generated on 2022-10-11 17:10:55 by Eclipse SUMO netconvert Version 1.14.1
<configuration xmlns:xsi="http://www.w3.org/2001/XMLSchema-instance" xsi:noNamespaceSchemaLocation="http://sumo.dlr.de/xsd/netconvertConfiguration.xsd">

    <input>
        <node-files value="../data/salt-lake-city/nodes.nod.xml"/>
        <edge-files value="../data/salt-lake-city/edges.edg.xml"/>
        <connection-files value="../data/salt-lake-city/connections.con.xml"/>
    </input>

    <output>
        <output-file value="../data/salt-lake-city/sumo/net/89.net.xml"/>
    </output>

    <tls_building>
        <tls.minor-left.max-speed value="1"/>
    </tls_building>

    <report>
        <verbose value="true"/>
    </report>

</configuration>
-->

<net version="1.9" junctionCornerDetail="5" limitTurnSpeed="5.50" xmlns:xsi="http://www.w3.org/2001/XMLSchema-instance" xsi:noNamespaceSchemaLocation="http://sumo.dlr.de/xsd/net_file.xsd">

    <location netOffset="613.97,636.59" convBoundary="0.00,0.00,1255.19,1243.08" origBoundary="-613.97,-636.59,641.22,606.49" projParameter="!"/>

    <edge id=":A_0" function="internal">
        <lane id=":A_0_0" index="0" speed="6.51" length="9.03" shape="609.17,950.23,-4.25 608.82,947.78,-4.25 607.77,946.03,-4.25 606.02,944.98,-4.25 603.57,944.63,-4.25"/>
    </edge>
    <edge id=":A_1" function="internal">
        <lane id=":A_1_0" index="0" speed="30.00" length="20.80" shape="609.17,950.23,-4.25 609.17,929.43,-4.11"/>
        <lane id=":A_1_1" index="1" speed="30.00" length="20.80" shape="612.37,950.23,-4.25 612.37,929.43,-4.11"/>
    </edge>
    <edge id=":A_3" function="internal">
        <lane id=":A_3_0" index="0" speed="9.26" length="5.01" shape="612.37,950.23,-4.25 613.08,945.27,-4.25"/>
    </edge>
    <edge id=":A_16" function="internal">
        <lane id=":A_16_0" index="0" speed="9.26" length="14.34" shape="613.08,945.27,-4.25 613.12,944.98,-4.25 615.37,941.23,-4.25 619.12,938.98,-4.25 624.37,938.23,-4.25"/>
    </edge>
    <edge id=":A_4" function="internal">
        <lane id=":A_4_0" index="0" speed="6.51" length="9.03" shape="624.37,944.63,-4.25 621.92,944.98,-4.25 620.17,946.03,-4.25 619.12,947.78,-4.25 618.77,950.23,-4.25"/>
    </edge>
    <edge id=":A_5" function="internal">
        <lane id=":A_5_0" index="0" speed="30.00" length="20.80" shape="624.37,944.63,-4.25 603.57,944.63,-4.25"/>
        <lane id=":A_5_1" index="1" speed="30.00" length="20.80" shape="624.37,941.43,-4.25 603.57,941.43,-4.25"/>
    </edge>
    <edge id=":A_7" function="internal">
        <lane id=":A_7_0" index="0" speed="9.26" length="5.01" shape="624.37,941.43,-4.25 619.41,940.73,-4.21"/>
    </edge>
    <edge id=":A_17" function="internal">
        <lane id=":A_17_0" index="0" speed="9.26" length="14.34" shape="619.41,940.73,-4.21 619.12,940.68,-4.21 615.37,938.43,-4.18 613.12,934.68,-4.15 612.37,929.43,-4.11"/>
    </edge>
    <edge id=":A_8" function="internal">
        <lane id=":A_8_0" index="0" speed="6.51" length="9.03" shape="618.77,929.43,-4.11 619.12,931.88,-4.15 620.17,933.63,-4.18 621.92,934.68,-4.21 624.37,935.03,-4.25"/>
    </edge>
    <edge id=":A_9" function="internal">
        <lane id=":A_9_0" index="0" speed="30.00" length="20.80" shape="618.77,929.43,-4.11 618.77,950.23,-4.25"/>
        <lane id=":A_9_1" index="1" speed="30.00" length="20.80" shape="615.57,929.43,-4.11 615.57,950.23,-4.25"/>
    </edge>
    <edge id=":A_11" function="internal">
        <lane id=":A_11_0" index="0" speed="9.26" length="5.01" shape="615.57,929.43,-4.11 614.87,934.40,-4.14"/>
    </edge>
    <edge id=":A_18" function="internal">
        <lane id=":A_18_0" index="0" speed="9.26" length="14.34" shape="614.87,934.40,-4.14 614.82,934.68,-4.15 612.57,938.43,-4.18 608.82,940.68,-4.21 603.57,941.43,-4.25"/>
    </edge>
    <edge id=":A_12" function="internal">
        <lane id=":A_12_0" index="0" speed="6.51" length="9.03" shape="603.57,935.03,-4.25 606.02,934.68,-4.21 607.77,933.63,-4.18 608.82,931.88,-4.15 609.17,929.43,-4.11"/>
    </edge>
    <edge id=":A_13" function="internal">
        <lane id=":A_13_0" index="0" speed="30.00" length="20.80" shape="603.57,935.03,-4.25 624.37,935.03,-4.25"/>
        <lane id=":A_13_1" index="1" speed="30.00" length="20.80" shape="603.57,938.23,-4.25 624.37,938.23,-4.25"/>
    </edge>
    <edge id=":A_15" function="internal">
        <lane id=":A_15_0" index="0" speed="9.26" length="5.01" shape="603.57,938.23,-4.25 608.54,938.94,-4.25"/>
    </edge>
    <edge id=":A_19" function="internal">
        <lane id=":A_19_0" index="0" speed="9.26" length="14.34" shape="608.54,938.94,-4.25 608.82,938.98,-4.25 612.57,941.23,-4.25 614.82,944.98,-4.25 615.57,950.23,-4.25"/>
    </edge>
    <edge id=":AA_0" function="internal">
        <lane id=":AA_0_0" index="0" speed="3.65" length="4.67" shape="310.73,941.43,-4.25 309.53,940.63,-4.25 309.13,939.83,-4.25 309.53,939.03,-4.25 310.73,938.23,-4.25"/>
    </edge>
    <edge id=":AB_0" function="internal">
        <lane id=":AB_0_0" index="0" speed="3.65" length="4.67" shape="615.57,1243.08,-4.25 614.77,1244.28,-4.25 613.97,1244.68,-4.25 613.17,1244.28,-4.25 612.37,1243.08,-4.25"/>
    </edge>
    <edge id=":AC_0" function="internal">
        <lane id=":AC_0_0" index="0" speed="3.65" length="4.67" shape="917.22,938.23,-4.25 918.42,939.03,-4.25 918.82,939.83,-4.25 918.42,940.63,-4.25 917.22,941.43,-4.25"/>
    </edge>
    <edge id=":B_0" function="internal">
        <lane id=":B_0_0" index="0" speed="7.33" length="11.73" shape="932.98,646.99,5.37 932.43,644.54,5.34 930.78,642.79,5.30 928.03,641.74,5.26 924.18,641.39,5.20"/>
    </edge>
    <edge id=":B_1" function="internal">
        <lane id=":B_1_0" index="0" speed="30.00" length="21.09" shape="932.98,646.99,5.37 932.48,643.04,5.37 931.38,638.46,5.37 930.28,632.95,5.37 929.78,626.19,5.37"/>
    </edge>
    <edge id=":B_2" function="internal">
        <lane id=":B_2_0" index="0" speed="7.33" length="11.73" shape="944.98,638.19,5.37 942.53,638.74,5.37 940.78,640.39,5.37 939.73,643.14,5.37 939.38,646.99,5.37"/>
    </edge>
    <edge id=":B_3" function="internal">
        <lane id=":B_3_0" index="0" speed="30.00" length="21.09" shape="944.98,638.19,5.37 941.03,638.69,5.34 936.46,639.79,5.30 930.95,640.89,5.26 924.18,641.39,5.20"/>
    </edge>
    <edge id=":B_4" function="internal">
        <lane id=":B_4_0" index="0" speed="7.33" length="11.73" shape="936.18,626.19,5.37 936.73,628.64,5.37 938.38,630.39,5.37 941.13,631.44,5.37 944.98,631.79,5.37"/>
    </edge>
    <edge id=":B_5" function="internal">
        <lane id=":B_5_0" index="0" speed="30.00" length="21.09" shape="936.18,626.19,5.37 936.68,630.14,5.37 937.78,634.71,5.37 938.88,640.22,5.37 939.38,646.99,5.37"/>
    </edge>
    <edge id=":B_6" function="internal">
        <lane id=":B_6_0" index="0" speed="7.33" length="11.73" shape="924.18,634.99,5.20 926.63,634.44,5.24 928.38,632.79,5.27 929.43,630.04,5.32 929.78,626.19,5.37"/>
    </edge>
    <edge id=":B_7" function="internal">
        <lane id=":B_7_0" index="0" speed="30.00" length="21.09" shape="924.18,634.99,5.20 928.14,634.49,5.23 932.71,633.39,5.27 938.22,632.29,5.32 944.98,631.79,5.37"/>
    </edge>
    <edge id=":BA_0" function="internal">
        <lane id=":BA_0_0" index="0" speed="3.65" length="4.67" shape="936.18,957.20,5.37 935.38,958.40,5.37 934.58,958.80,5.37 933.78,958.40,5.37 932.98,957.20,5.37"/>
    </edge>
    <edge id=":BB_0" function="internal">
        <lane id=":BB_0_0" index="0" speed="3.65" length="4.67" shape="1255.19,634.99,5.37 1256.39,635.79,5.37 1256.79,636.59,5.37 1256.39,637.39,5.37 1255.19,638.19,5.37"/>
    </edge>
    <edge id=":BC_0" function="internal">
        <lane id=":BC_0_0" index="0" speed="3.65" length="4.67" shape="932.98,315.98,5.37 933.78,314.78,5.37 934.58,314.38,5.37 935.38,314.78,5.37 936.18,315.98,5.37"/>
    </edge>
    <edge id=":C_0" function="internal">
        <lane id=":C_0_0" index="0" speed="6.51" length="9.03" shape="609.17,328.69,-4.60 608.82,326.24,-4.64 607.77,324.49,-4.68 606.02,323.44,-4.71 603.57,323.09,-4.75"/>
    </edge>
    <edge id=":C_1" function="internal">
        <lane id=":C_1_0" index="0" speed="30.00" length="20.80" shape="609.17,328.69,-4.60 609.17,307.89,-4.75"/>
        <lane id=":C_1_1" index="1" speed="30.00" length="20.80" shape="612.37,328.69,-4.60 612.37,307.89,-4.75"/>
    </edge>
    <edge id=":C_3" function="internal">
        <lane id=":C_3_0" index="0" speed="9.26" length="5.01" shape="612.37,328.69,-4.60 613.08,323.73,-4.64"/>
    </edge>
    <edge id=":C_16" function="internal">
        <lane id=":C_16_0" index="0" speed="9.26" length="14.34" shape="613.08,323.73,-4.64 613.12,323.44,-4.64 615.37,319.69,-4.68 619.12,317.44,-4.71 624.37,316.69,-4.75"/>
    </edge>
    <edge id=":C_4" function="internal">
        <lane id=":C_4_0" index="0" speed="6.51" length="9.03" shape="624.37,323.09,-4.75 621.92,323.44,-4.71 620.17,324.49,-4.68 619.12,326.24,-4.64 618.77,328.69,-4.60"/>
    </edge>
    <edge id=":C_5" function="internal">
        <lane id=":C_5_0" index="0" speed="30.00" length="20.80" shape="624.37,323.09,-4.75 603.57,323.09,-4.75"/>
        <lane id=":C_5_1" index="1" speed="30.00" length="20.80" shape="624.37,319.89,-4.75 603.57,319.89,-4.75"/>
    </edge>
    <edge id=":C_7" function="internal">
        <lane id=":C_7_0" index="0" speed="9.26" length="5.01" shape="624.37,319.89,-4.75 619.41,319.19,-4.75"/>
    </edge>
    <edge id=":C_17" function="internal">
        <lane id=":C_17_0" index="0" speed="9.26" length="14.34" shape="619.41,319.19,-4.75 619.12,319.14,-4.75 615.37,316.89,-4.75 613.12,313.14,-4.75 612.37,307.89,-4.75"/>
    </edge>
    <edge id=":C_8" function="internal">
        <lane id=":C_8_0" index="0" speed="6.51" length="9.03" shape="618.77,307.89,-4.75 619.12,310.34,-4.75 620.17,312.09,-4.75 621.92,313.14,-4.75 624.37,313.49,-4.75"/>
    </edge>
    <edge id=":C_9" function="internal">
        <lane id=":C_9_0" index="0" speed="30.00" length="20.80" shape="618.77,307.89,-4.75 618.77,328.69,-4.60"/>
        <lane id=":C_9_1" index="1" speed="30.00" length="20.80" shape="615.57,307.89,-4.75 615.57,328.69,-4.60"/>
    </edge>
    <edge id=":C_11" function="internal">
        <lane id=":C_11_0" index="0" speed="9.26" length="5.01" shape="615.57,307.89,-4.75 614.87,312.86,-4.75"/>
    </edge>
    <edge id=":C_18" function="internal">
        <lane id=":C_18_0" index="0" speed="9.26" length="14.34" shape="614.87,312.86,-4.75 614.82,313.14,-4.75 612.57,316.89,-4.75 608.82,319.14,-4.75 603.57,319.89,-4.75"/>
    </edge>
    <edge id=":C_12" function="internal">
        <lane id=":C_12_0" index="0" speed="6.51" length="9.03" shape="603.57,313.49,-4.75 606.02,313.14,-4.75 607.77,312.09,-4.75 608.82,310.34,-4.75 609.17,307.89,-4.75"/>
    </edge>
    <edge id=":C_13" function="internal">
        <lane id=":C_13_0" index="0" speed="30.00" length="20.80" shape="603.57,313.49,-4.75 624.37,313.49,-4.75"/>
        <lane id=":C_13_1" index="1" speed="30.00" length="20.80" shape="603.57,316.69,-4.75 624.37,316.69,-4.75"/>
    </edge>
    <edge id=":C_15" function="internal">
        <lane id=":C_15_0" index="0" speed="9.26" length="5.01" shape="603.57,316.69,-4.75 608.54,317.40,-4.71"/>
    </edge>
    <edge id=":C_19" function="internal">
        <lane id=":C_19_0" index="0" speed="9.26" length="14.34" shape="608.54,317.40,-4.71 608.82,317.44,-4.71 612.57,319.69,-4.68 614.82,323.44,-4.64 615.57,328.69,-4.60"/>
    </edge>
    <edge id=":CA_0" function="internal">
        <lane id=":CA_0_0" index="0" speed="3.65" length="4.67" shape="932.27,316.69,-4.75 933.47,317.49,-4.75 933.87,318.29,-4.75 933.47,319.09,-4.75 932.27,319.89,-4.75"/>
    </edge>
    <edge id=":CB_0" function="internal">
        <lane id=":CB_0_0" index="0" speed="3.65" length="4.67" shape="612.37,0.00,-4.75 613.17,-1.20,-4.75 613.97,-1.60,-4.75 614.77,-1.20,-4.75 615.57,0.00,-4.75"/>
    </edge>
    <edge id=":CC_0" function="internal">
        <lane id=":CC_0_0" index="0" speed="3.65" length="4.67" shape="295.68,319.89,-4.75 294.48,319.09,-4.75 294.08,318.29,-4.75 294.48,317.49,-4.75 295.68,316.69,-4.75"/>
    </edge>
    <edge id=":D_0" function="internal">
        <lane id=":D_0_0" index="0" speed="7.33" length="11.73" shape="305.39,646.99,7.48 304.84,644.54,7.48 303.19,642.79,7.48 300.44,641.74,7.48 296.59,641.39,7.48"/>
    </edge>
    <edge id=":D_1" function="internal">
        <lane id=":D_1_0" index="0" speed="30.00" length="21.09" shape="305.39,646.99,7.48 304.89,643.04,7.48 303.79,638.46,7.48 302.69,632.95,7.48 302.19,626.19,7.48"/>
    </edge>
    <edge id=":D_2" function="internal">
        <lane id=":D_2_0" index="0" speed="7.33" length="11.73" shape="317.39,638.19,7.48 314.94,638.74,7.48 313.19,640.39,7.48 312.14,643.14,7.48 311.79,646.99,7.48"/>
    </edge>
    <edge id=":D_3" function="internal">
        <lane id=":D_3_0" index="0" speed="30.00" length="21.09" shape="317.39,638.19,7.48 313.43,638.69,7.48 308.86,639.79,7.48 303.35,640.89,7.48 296.59,641.39,7.48"/>
    </edge>
    <edge id=":D_4" function="internal">
        <lane id=":D_4_0" index="0" speed="7.33" length="11.73" shape="308.59,626.19,7.48 309.14,628.64,7.48 310.79,630.39,7.48 313.54,631.44,7.48 317.39,631.79,7.48"/>
    </edge>
    <edge id=":D_5" function="internal">
        <lane id=":D_5_0" index="0" speed="30.00" length="21.09" shape="308.59,626.19,7.48 309.09,630.14,7.48 310.19,634.71,7.48 311.29,640.22,7.48 311.79,646.99,7.48"/>
    </edge>
    <edge id=":D_6" function="internal">
        <lane id=":D_6_0" index="0" speed="7.33" length="11.73" shape="296.59,634.99,7.48 299.04,634.44,7.48 300.79,632.79,7.48 301.84,630.04,7.48 302.19,626.19,7.48"/>
    </edge>
    <edge id=":D_7" function="internal">
        <lane id=":D_7_0" index="0" speed="30.00" length="21.09" shape="296.59,634.99,7.48 300.54,634.49,7.48 305.11,633.39,7.48 310.62,632.29,7.48 317.39,631.79,7.48"/>
    </edge>
    <edge id=":DA_0" function="internal">
        <lane id=":DA_0_0" index="0" speed="3.65" length="4.67" shape="305.39,329.60,7.48 306.19,328.40,7.48 306.99,328.00,7.48 307.79,328.40,7.48 308.59,329.60,7.48"/>
    </edge>
    <edge id=":DB_0" function="internal">
        <lane id=":DB_0_0" index="0" speed="3.65" length="4.67" shape="-0.00,638.19,7.48 -1.20,637.39,7.48 -1.60,636.59,7.48 -1.20,635.79,7.48 0.00,634.99,7.48"/>
    </edge>
    <edge id=":DC_0" function="internal">
        <lane id=":DC_0_0" index="0" speed="3.65" length="4.67" shape="308.59,943.58,7.48 307.79,944.78,7.48 306.99,945.18,7.48 306.19,944.78,7.48 305.39,943.58,7.48"/>
    </edge>
    <edge id=":TL_0" function="internal">
        <lane id=":TL_0_0" index="0" speed="7.33" length="11.73" shape="609.17,646.99,-0.15 608.82,643.14,-0.10 607.77,640.39,-0.06 606.02,638.74,-0.03 603.57,638.19"/>
    </edge>
    <edge id=":TL_1" function="internal">
        <lane id=":TL_1_0" index="0" speed="30.00" length="20.80" shape="609.17,646.99,-0.15 609.17,626.19,-0.16"/>
        <lane id=":TL_1_1" index="1" speed="30.00" length="20.80" shape="612.37,646.99,-0.15 612.37,626.19,-0.16"/>
    </edge>
    <edge id=":TL_3" function="internal">
        <lane id=":TL_3_0" index="0" speed="9.26" length="5.01" shape="612.37,646.99,-0.15 613.08,642.03,-0.06"/>
    </edge>
    <edge id=":TL_14" function="internal">
        <lane id=":TL_14_0" index="0" speed="9.26" length="14.34" shape="613.08,642.03,-0.06 613.12,641.74,-0.06 615.37,637.99,0.01 619.12,635.74,0.09 624.37,634.99,0.17"/>
    </edge>
    <edge id=":TL_4" function="internal">
        <lane id=":TL_4_0" index="0" speed="6.51" length="9.04" shape="624.37,641.39,0.17 621.92,641.74,0.09 620.17,642.79,0.01 619.12,644.54,-0.06 618.77,646.99,-0.15"/>
    </edge>
    <edge id=":TL_5" function="internal">
        <lane id=":TL_5_0" index="0" speed="30.00" length="21.09" shape="624.37,641.39,0.17 617.61,640.89,0.12 612.10,639.79,0.07 607.53,638.69,0.03 603.57,638.19"/>
    </edge>
    <edge id=":TL_6" function="internal">
        <lane id=":TL_6_0" index="0" speed="9.26" length="7.32" shape="624.37,638.19,0.17 619.12,637.44,0.08 617.40,636.40,0.05"/>
    </edge>
    <edge id=":TL_15" function="internal">
        <lane id=":TL_15_0" index="0" speed="9.26" length="12.04" shape="617.40,636.40,0.05 615.37,635.19,0.01 613.12,631.44,-0.06 612.37,626.19,-0.16"/>
    </edge>
    <edge id=":TL_7" function="internal">
        <lane id=":TL_7_0" index="0" speed="7.33" length="11.73" shape="618.77,626.19,-0.16 619.12,630.04,-0.05 620.17,632.79,0.04 621.92,634.44,0.10 624.37,634.99,0.17"/>
    </edge>
    <edge id=":TL_8" function="internal">
        <lane id=":TL_8_0" index="0" speed="30.00" length="20.80" shape="618.77,626.19,-0.16 618.77,646.99,-0.15"/>
        <lane id=":TL_8_1" index="1" speed="30.00" length="20.80" shape="615.57,626.19,-0.16 615.57,646.99,-0.15"/>
    </edge>
    <edge id=":TL_10" function="internal">
        <lane id=":TL_10_0" index="0" speed="9.26" length="5.01" shape="615.57,626.19,-0.16 614.87,631.15,-0.12"/>
    </edge>
    <edge id=":TL_16" function="internal">
        <lane id=":TL_16_0" index="0" speed="9.26" length="14.34" shape="614.87,631.15,-0.12 614.82,631.44,-0.11 612.57,635.19,-0.08 608.82,637.44,-0.04 603.57,638.19"/>
    </edge>
    <edge id=":TL_11" function="internal">
        <lane id=":TL_11_0" index="0" speed="6.51" length="9.03" shape="603.57,631.79 606.02,631.44,-0.04 607.77,630.39,-0.08 608.82,628.64,-0.11 609.17,626.19,-0.16"/>
    </edge>
    <edge id=":TL_12" function="internal">
        <lane id=":TL_12_0" index="0" speed="30.00" length="21.09" shape="603.57,631.79 610.34,632.29,0.06 615.85,633.39,0.10 620.42,634.49,0.14 624.37,634.99,0.17"/>
    </edge>
    <edge id=":TL_13" function="internal">
        <lane id=":TL_13_0" index="0" speed="9.26" length="7.32" shape="603.57,634.99 608.82,635.74,-0.04 610.55,636.78,-0.06"/>
    </edge>
    <edge id=":TL_17" function="internal">
        <lane id=":TL_17_0" index="0" speed="9.26" length="12.03" shape="610.55,636.78,-0.06 612.57,637.99,-0.07 614.82,641.74,-0.11 615.57,646.99,-0.15"/>
    </edge>

    <edge id="A2AA" from="A" to="AA" priority="-1">
        <lane id="A2AA_0" index="0" speed="30.00" length="292.85" shape="603.57,944.63,-4.25 310.73,944.63,-4.25"/>
        <lane id="A2AA_1" index="1" speed="30.00" length="292.85" shape="603.57,941.43,-4.25 310.73,941.43,-4.25"/>
    </edge>
    <edge id="A2AB" from="A" to="AB" priority="-1">
        <lane id="A2AB_0" index="0" speed="30.00" length="292.85" shape="618.77,950.23,-4.25 618.77,1243.08,-4.25"/>
        <lane id="A2AB_1" index="1" speed="30.00" length="292.85" shape="615.57,950.23,-4.25 615.57,1243.08,-4.25"/>
    </edge>
    <edge id="A2AC" from="A" to="AC" priority="-1">
        <lane id="A2AC_0" index="0" speed="30.00" length="292.85" shape="624.37,935.03,-4.25 917.22,935.03,-4.25"/>
        <lane id="A2AC_1" index="1" speed="30.00" length="292.85" shape="624.37,938.23,-4.25 917.22,938.23,-4.25"/>
    </edge>
    <edge id="A2TL" from="A" to="TL" priority="-1">
        <lane id="A2TL_0" index="0" speed="30.00" length="282.47" shape="609.17,929.43,-4.11 609.17,646.99,-0.15"/>
        <lane id="A2TL_1" index="1" speed="30.00" length="282.47" shape="612.37,929.43,-4.11 612.37,646.99,-0.15"/>
    </edge>
    <edge id="AA2A" from="AA" to="A" priority="-1">
        <lane id="AA2A_0" index="0" speed="30.00" length="292.85" shape="310.73,935.03,-4.25 603.57,935.03,-4.25"/>
        <lane id="AA2A_1" index="1" speed="30.00" length="292.85" shape="310.73,938.23,-4.25 603.57,938.23,-4.25"/>
    </edge>
    <edge id="AB2A" from="AB" to="A" priority="-1">
        <lane id="AB2A_0" index="0" speed="30.00" length="292.85" shape="609.17,1243.08,-4.25 609.17,950.23,-4.25"/>
        <lane id="AB2A_1" index="1" speed="30.00" length="292.85" shape="612.37,1243.08,-4.25 612.37,950.23,-4.25"/>
    </edge>
    <edge id="AC2A" from="AC" to="A" priority="-1">
        <lane id="AC2A_0" index="0" speed="30.00" length="292.85" shape="917.22,944.63,-4.25 624.37,944.63,-4.25"/>
        <lane id="AC2A_1" index="1" speed="30.00" length="292.85" shape="917.22,941.43,-4.25 624.37,941.43,-4.25"/>
    </edge>
    <edge id="B2BA" from="B" to="BA" priority="-1">
        <lane id="B2BA_0" index="0" speed="30.00" length="310.21" shape="939.38,646.99,5.37 939.38,957.20,5.37"/>
        <lane id="B2BA_1" index="1" speed="30.00" length="310.21" shape="936.18,646.99,5.37 936.18,957.20,5.37"/>
    </edge>
    <edge id="B2BB" from="B" to="BB" priority="-1">
        <lane id="B2BB_0" index="0" speed="30.00" length="310.21" shape="944.98,631.79,5.37 1255.19,631.79,5.37"/>
        <lane id="B2BB_1" index="1" speed="30.00" length="310.21" shape="944.98,634.99,5.37 1255.19,634.99,5.37"/>
    </edge>
    <edge id="B2BC" from="B" to="BC" priority="-1">
        <lane id="B2BC_0" index="0" speed="30.00" length="310.21" shape="929.78,626.19,5.37 929.78,315.98,5.37"/>
        <lane id="B2BC_1" index="1" speed="30.00" length="310.21" shape="932.98,626.19,5.37 932.98,315.98,5.37"/>
    </edge>
    <edge id="B2TL" from="B" to="TL" priority="-1">
        <lane id="B2TL_0" index="0" speed="30.00" length="299.85" shape="924.18,641.39,5.20 624.37,641.39,0.17"/>
        <lane id="B2TL_1" index="1" speed="30.00" length="299.85" shape="924.18,638.19,5.20 624.37,638.19,0.17"/>
    </edge>
    <edge id="BA2B" from="BA" to="B" priority="-1">
        <lane id="BA2B_0" index="0" speed="30.00" length="310.21" shape="932.98,957.20,5.37 932.98,646.99,5.37"/>
    </edge>
    <edge id="BB2B" from="BB" to="B" priority="-1">
        <lane id="BB2B_0" index="0" speed="30.00" length="310.21" shape="1255.19,638.19,5.37 944.98,638.19,5.37"/>
    </edge>
    <edge id="BC2B" from="BC" to="B" priority="-1">
        <lane id="BC2B_0" index="0" speed="30.00" length="310.21" shape="936.18,315.98,5.37 936.18,626.19,5.37"/>
    </edge>
    <edge id="C2CA" from="C" to="CA" priority="-1">
        <lane id="C2CA_0" index="0" speed="30.00" length="307.89" shape="624.37,313.49,-4.75 932.27,313.49,-4.75"/>
        <lane id="C2CA_1" index="1" speed="30.00" length="307.89" shape="624.37,316.69,-4.75 932.27,316.69,-4.75"/>
    </edge>
    <edge id="C2CB" from="C" to="CB" priority="-1">
        <lane id="C2CB_0" index="0" speed="30.00" length="307.89" shape="609.17,307.89,-4.75 609.17,0.00,-4.75"/>
        <lane id="C2CB_1" index="1" speed="30.00" length="307.89" shape="612.37,307.89,-4.75 612.37,0.00,-4.75"/>
    </edge>
    <edge id="C2CC" from="C" to="CC" priority="-1">
        <lane id="C2CC_0" index="0" speed="30.00" length="307.89" shape="603.57,323.09,-4.75 295.68,323.09,-4.75"/>
        <lane id="C2CC_1" index="1" speed="30.00" length="307.89" shape="603.57,319.89,-4.75 295.68,319.89,-4.75"/>
    </edge>
    <edge id="C2TL" from="C" to="TL" priority="-1">
        <lane id="C2TL_0" index="0" speed="30.00" length="297.53" shape="618.77,328.69,-4.60 618.77,626.19,-0.16"/>
        <lane id="C2TL_1" index="1" speed="30.00" length="297.53" shape="615.57,328.69,-4.60 615.57,626.19,-0.16"/>
    </edge>
    <edge id="CA2C" from="CA" to="C" priority="-1">
        <lane id="CA2C_0" index="0" speed="30.00" length="307.89" shape="932.27,323.09,-4.75 624.37,323.09,-4.75"/>
        <lane id="CA2C_1" index="1" speed="30.00" length="307.89" shape="932.27,319.89,-4.75 624.37,319.89,-4.75"/>
    </edge>
    <edge id="CB2C" from="CB" to="C" priority="-1">
        <lane id="CB2C_0" index="0" speed="30.00" length="307.89" shape="618.77,0.00,-4.75 618.77,307.89,-4.75"/>
        <lane id="CB2C_1" index="1" speed="30.00" length="307.89" shape="615.57,0.00,-4.75 615.57,307.89,-4.75"/>
    </edge>
    <edge id="CC2C" from="CC" to="C" priority="-1">
        <lane id="CC2C_0" index="0" speed="30.00" length="307.89" shape="295.68,313.49,-4.75 603.57,313.49,-4.75"/>
        <lane id="CC2C_1" index="1" speed="30.00" length="307.89" shape="295.68,316.69,-4.75 603.57,316.69,-4.75"/>
    </edge>
    <edge id="D2DA" from="D" to="DA" priority="-1">
        <lane id="D2DA_0" index="0" speed="30.00" length="296.59" shape="302.19,626.19,7.48 302.19,329.60,7.48"/>
        <lane id="D2DA_1" index="1" speed="30.00" length="296.59" shape="305.39,626.19,7.48 305.39,329.60,7.48"/>
    </edge>
    <edge id="D2DB" from="D" to="DB" priority="-1">
        <lane id="D2DB_0" index="0" speed="30.00" length="296.59" shape="296.59,641.39,7.48 -0.00,641.39,7.48"/>
        <lane id="D2DB_1" index="1" speed="30.00" length="296.59" shape="296.59,638.19,7.48 -0.00,638.19,7.48"/>
    </edge>
    <edge id="D2DC" from="D" to="DC" priority="-1">
        <lane id="D2DC_0" index="0" speed="30.00" length="296.59" shape="311.79,646.99,7.48 311.79,943.58,7.48"/>
        <lane id="D2DC_1" index="1" speed="30.00" length="296.59" shape="308.59,646.99,7.48 308.59,943.58,7.48"/>
    </edge>
    <edge id="D2TL" from="D" to="TL" priority="-1">
        <lane id="D2TL_0" index="0" speed="30.00" length="286.29" shape="317.39,631.79,7.48 603.57,631.79"/>
        <lane id="D2TL_1" index="1" speed="30.00" length="286.29" shape="317.39,634.99,7.48 603.57,634.99"/>
    </edge>
    <edge id="DA2D" from="DA" to="D" priority="-1">
        <lane id="DA2D_0" index="0" speed="30.00" length="296.59" shape="308.59,329.60,7.48 308.59,626.19,7.48"/>
    </edge>
    <edge id="DB2D" from="DB" to="D" priority="-1">
        <lane id="DB2D_0" index="0" speed="30.00" length="296.59" shape="0.00,634.99,7.48 296.59,634.99,7.48"/>
    </edge>
    <edge id="DC2D" from="DC" to="D" priority="-1">
        <lane id="DC2D_0" index="0" speed="30.00" length="296.59" shape="305.39,943.58,7.48 305.39,646.99,7.48"/>
    </edge>
    <edge id="TL2A" from="TL" to="A" priority="-1">
        <lane id="TL2A_0" index="0" speed="30.00" length="282.47" shape="618.77,646.99,-0.15 618.77,929.43,-4.11"/>
        <lane id="TL2A_1" index="1" speed="30.00" length="282.47" shape="615.57,646.99,-0.15 615.57,929.43,-4.11"/>
    </edge>
    <edge id="TL2B" from="TL" to="B" priority="-1">
        <lane id="TL2B_0" index="0" speed="30.00" length="299.85" shape="624.37,634.99,0.17 924.18,634.99,5.20"/>
    </edge>
    <edge id="TL2C" from="TL" to="C" priority="-1">
        <lane id="TL2C_0" index="0" speed="30.00" length="297.53" shape="609.17,626.19,-0.16 609.17,328.69,-4.60"/>
        <lane id="TL2C_1" index="1" speed="30.00" length="297.53" shape="612.37,626.19,-0.16 612.37,328.69,-4.60"/>
    </edge>
    <edge id="TL2D" from="TL" to="D" priority="-1">
        <lane id="TL2D_0" index="0" speed="30.00" length="286.29" shape="603.57,638.19 317.39,638.19,7.48"/>
    </edge>

    <tlLogic id="A" type="static" programID="0" offset="0">
        <phase duration="39" state="GGGgrrrrGGGgrrrr"/>
        <phase duration="6"  state="yyyyrrrryyyyrrrr"/>
        <phase duration="39" state="rrrrGGGgrrrrGGGg"/>
        <phase duration="6"  state="rrrryyyyrrrryyyy"/>
    </tlLogic>
    <tlLogic id="AA" type="static" programID="0" offset="0">
        <phase duration="79" state="G"/>
        <phase duration="6"  state="y"/>
        <phase duration="5"  state="r"/>
    </tlLogic>
    <tlLogic id="AB" type="static" programID="0" offset="0">
        <phase duration="79" state="G"/>
        <phase duration="6"  state="y"/>
        <phase duration="5"  state="r"/>
    </tlLogic>
    <tlLogic id="AC" type="static" programID="0" offset="0">
        <phase duration="79" state="G"/>
        <phase duration="6"  state="y"/>
        <phase duration="5"  state="r"/>
    </tlLogic>
    <tlLogic id="B" type="static" programID="0" offset="0">
        <phase duration="39" state="GGrrGGrr"/>
        <phase duration="6"  state="yyrryyrr"/>
        <phase duration="39" state="rrGGrrGG"/>
        <phase duration="6"  state="rryyrryy"/>
    </tlLogic>
    <tlLogic id="BA" type="static" programID="0" offset="0">
        <phase duration="79" state="G"/>
        <phase duration="6"  state="y"/>
        <phase duration="5"  state="r"/>
    </tlLogic>
    <tlLogic id="BB" type="static" programID="0" offset="0">
        <phase duration="79" state="G"/>
        <phase duration="6"  state="y"/>
        <phase duration="5"  state="r"/>
    </tlLogic>
    <tlLogic id="BC" type="static" programID="0" offset="0">
        <phase duration="79" state="G"/>
        <phase duration="6"  state="y"/>
        <phase duration="5"  state="r"/>
    </tlLogic>
    <tlLogic id="C" type="static" programID="0" offset="0">
        <phase duration="39" state="GGGgrrrrGGGgrrrr"/>
        <phase duration="6"  state="yyyyrrrryyyyrrrr"/>
        <phase duration="39" state="rrrrGGGgrrrrGGGg"/>
        <phase duration="6"  state="rrrryyyyrrrryyyy"/>
    </tlLogic>
    <tlLogic id="CA" type="static" programID="0" offset="0">
        <phase duration="79" state="G"/>
        <phase duration="6"  state="y"/>
        <phase duration="5"  state="r"/>
    </tlLogic>
    <tlLogic id="CB" type="static" programID="0" offset="0">
        <phase duration="79" state="G"/>
        <phase duration="6"  state="y"/>
        <phase duration="5"  state="r"/>
    </tlLogic>
    <tlLogic id="CC" type="static" programID="0" offset="0">
        <phase duration="79" state="G"/>
        <phase duration="6"  state="y"/>
        <phase duration="5"  state="r"/>
    </tlLogic>
    <tlLogic id="D" type="static" programID="0" offset="0">
        <phase duration="39" state="GGrrGGrr"/>
        <phase duration="6"  state="yyrryyrr"/>
        <phase duration="39" state="rrGGrrGG"/>
        <phase duration="6"  state="rryyrryy"/>
    </tlLogic>
    <tlLogic id="DA" type="static" programID="0" offset="0">
        <phase duration="79" state="G"/>
        <phase duration="6"  state="y"/>
        <phase duration="5"  state="r"/>
    </tlLogic>
    <tlLogic id="DB" type="static" programID="0" offset="0">
        <phase duration="79" state="G"/>
        <phase duration="6"  state="y"/>
        <phase duration="5"  state="r"/>
    </tlLogic>
    <tlLogic id="DC" type="static" programID="0" offset="0">