<?xml version="1.0" encoding="UTF-8"?>

<!-- generated on 2022-10-11 16:45:10 by Eclipse SUMO netconvert Version 1.14.1
<configuration xmlns:xsi="http://www.w3.org/2001/XMLSchema-instance" xsi:noNamespaceSchemaLocation="http://sumo.dlr.de/xsd/netconvertConfiguration.xsd">

    <input>
        <node-files value="../data/salt-lake-city/nodes.nod.xml"/>
        <edge-files value="../data/salt-lake-city/edges.edg.xml"/>
        <connection-files value="../data/salt-lake-city/connections.con.xml"/>
    </input>

    <output>
        <output-file value="../data/salt-lake-city/sumo/net/92.net.xml"/>
    </output>

    <tls_building>
        <tls.minor-left.max-speed value="1"/>
    </tls_building>

    <report>
        <verbose value="true"/>
    </report>

</configuration>
-->

<net version="1.9" junctionCornerDetail="5" limitTurnSpeed="5.50" xmlns:xsi="http://www.w3.org/2001/XMLSchema-instance" xsi:noNamespaceSchemaLocation="http://sumo.dlr.de/xsd/net_file.xsd">

    <location netOffset="649.47,471.01" convBoundary="0.00,0.00,1417.41,1113.45" origBoundary="-649.47,-471.01,767.94,642.44" projParameter="!"/>

    <edge id=":A_0" function="internal">
        <lane id=":A_0_0" index="0" speed="7.33" length="11.73" shape="644.67,805.83,3.92 644.12,803.38,3.92 642.47,801.63,3.92 639.72,800.58,3.92 635.87,800.23,3.92"/>
    </edge>
    <edge id=":A_1" function="internal">
        <lane id=":A_1_0" index="0" speed="30.00" length="27.43" shape="644.67,805.83,3.92 644.17,799.28,3.88 643.07,793.61,3.84 641.97,787.25,3.80 641.47,778.63,3.75"/>
        <lane id=":A_1_1" index="1" speed="30.00" length="27.43" shape="647.87,805.83,3.92 647.37,799.28,3.88 646.27,793.61,3.84 645.17,787.25,3.80 644.67,778.63,3.75"/>
    </edge>
    <edge id=":A_3" function="internal">
        <lane id=":A_3_0" index="0" speed="10.36" length="10.84" shape="647.87,805.83,3.92 648.82,799.18,3.92 650.94,795.64,3.92"/>
    </edge>
    <edge id=":A_16" function="internal">
        <lane id=":A_16_0" index="0" speed="10.36" length="13.67" shape="650.94,795.64,3.92 651.67,794.43,3.92 656.42,791.58,3.92 663.07,790.63,3.92"/>
    </edge>
    <edge id=":A_4" function="internal">
        <lane id=":A_4_0" index="0" speed="7.33" length="11.73" shape="663.07,797.03,3.92 660.62,797.58,3.92 658.87,799.23,3.92 657.82,801.98,3.92 657.47,805.83,3.92"/>
    </edge>
    <edge id=":A_5" function="internal">
        <lane id=":A_5_0" index="0" speed="30.00" length="27.43" shape="663.07,797.03,3.92 656.52,797.53,3.92 650.85,798.63,3.92 644.49,799.73,3.92 635.87,800.23,3.92"/>
        <lane id=":A_5_1" index="1" speed="30.00" length="27.43" shape="663.07,793.83,3.92 656.52,794.33,3.92 650.85,795.43,3.92 644.49,796.53,3.92 635.87,797.03,3.92"/>
    </edge>
    <edge id=":A_7" function="internal">
        <lane id=":A_7_0" index="0" speed="10.36" length="10.84" shape="663.07,793.83,3.92 656.42,792.88,3.87 652.88,790.75,3.84"/>
    </edge>
    <edge id=":A_17" function="internal">
        <lane id=":A_17_0" index="0" speed="10.36" length="13.67" shape="652.88,790.75,3.84 651.67,790.03,3.83 648.82,785.28,3.80 647.87,778.63,3.75"/>
    </edge>
    <edge id=":A_8" function="internal">
        <lane id=":A_8_0" index="0" speed="7.33" length="11.73" shape="654.27,778.63,3.75 654.82,781.08,3.79 656.47,782.83,3.82 659.22,783.88,3.86 663.07,784.23,3.92"/>
    </edge>
    <edge id=":A_9" function="internal">
        <lane id=":A_9_0" index="0" speed="30.00" length="27.43" shape="654.27,778.63,3.75 654.77,785.17,3.79 655.87,790.84,3.82 656.97,797.21,3.86 657.47,805.83,3.92"/>
        <lane id=":A_9_1" index="1" speed="30.00" length="27.43" shape="651.07,778.63,3.75 651.57,785.17,3.79 652.67,790.84,3.82 653.77,797.21,3.86 654.27,805.83,3.92"/>
    </edge>
    <edge id=":A_11" function="internal">
        <lane id=":A_11_0" index="0" speed="10.36" length="10.84" shape="651.07,778.63,3.75 650.12,785.28,3.80 647.99,788.81,3.82"/>
    </edge>
    <edge id=":A_18" function="internal">
        <lane id=":A_18_0" index="0" speed="10.36" length="13.67" shape="647.99,788.81,3.82 647.27,790.03,3.83 642.52,792.88,3.87 635.87,793.83,3.92"/>
    </edge>
    <edge id=":A_12" function="internal">
        <lane id=":A_12_0" index="0" speed="7.33" length="11.73" shape="635.87,787.43,3.92 638.32,786.88,3.88 640.07,785.23,3.85 641.12,782.48,3.81 641.47,778.63,3.75"/>
    </edge>
    <edge id=":A_13" function="internal">
        <lane id=":A_13_0" index="0" speed="30.00" length="27.43" shape="635.87,787.43,3.92 642.41,786.93,3.92 648.08,785.83,3.92 654.45,784.73,3.92 663.07,784.23,3.92"/>
        <lane id=":A_13_1" index="1" speed="30.00" length="27.43" shape="635.87,790.63,3.92 642.41,790.13,3.92 648.08,789.03,3.92 654.45,787.93,3.92 663.07,787.43,3.92"/>
    </edge>
    <edge id=":A_15" function="internal">
        <lane id=":A_15_0" index="0" speed="10.36" length="10.84" shape="635.87,790.63,3.92 642.52,791.58,3.92 646.05,793.70,3.92"/>
    </edge>
    <edge id=":A_19" function="internal">
        <lane id=":A_19_0" index="0" speed="10.36" length="13.67" shape="646.05,793.70,3.92 647.27,794.43,3.92 650.12,799.18,3.92 651.07,805.83,3.92"/>
    </edge>
    <edge id=":AA_0" function="internal">
        <lane id=":AA_0_0" index="0" speed="3.65" length="4.67" shape="328.25,793.83,3.92 327.05,793.03,3.92 326.65,792.23,3.92 327.05,791.43,3.92 328.25,790.63,3.92"/>
    </edge>
    <edge id=":AB_0" function="internal">
        <lane id=":AB_0_0" index="0" speed="3.65" length="4.67" shape="651.07,1113.45,3.92 650.27,1114.65,3.92 649.47,1115.05,3.92 648.67,1114.65,3.92 647.87,1113.45,3.92"/>
    </edge>
    <edge id=":AC_0" function="internal">
        <lane id=":AC_0_0" index="0" speed="3.65" length="4.67" shape="970.69,790.63,3.92 971.89,791.43,3.92 972.29,792.23,3.92 971.89,793.03,3.92 970.69,793.83,3.92"/>
    </edge>
    <edge id=":B_0" function="internal">
        <lane id=":B_0_0" index="0" speed="7.33" length="11.73" shape="1022.24,487.81,0.35 1021.89,483.96,0.35 1020.84,481.21,0.34 1019.09,479.56,0.34 1016.64,479.01,0.34"/>
    </edge>
    <edge id=":B_1" function="internal">
        <lane id=":B_1_0" index="0" speed="45.00" length="33.75" shape="1022.24,487.81,0.35 1022.74,477.55,0.35 1023.84,470.30,0.35 1024.94,463.41,0.35 1025.44,454.21,0.35"/>
        <lane id=":B_1_1" index="1" speed="45.00" length="33.75" shape="1025.44,487.81,0.35 1025.94,477.55,0.35 1027.04,470.30,0.35 1028.14,463.41,0.35 1028.64,454.21,0.35"/>
        <lane id=":B_1_2" index="2" speed="45.00" length="33.75" shape="1028.64,487.81,0.35 1029.14,477.55,0.35 1030.24,470.30,0.35 1031.34,463.41,0.35 1031.84,454.21,0.35"/>
        <lane id=":B_1_3" index="3" speed="45.00" length="33.75" shape="1031.84,487.81,0.35 1031.84,454.21,0.35"/>
    </edge>
    <edge id=":B_5" function="internal">
        <lane id=":B_5_0" index="0" speed="11.36" length="5.01" shape="1031.84,487.81,0.35 1032.55,482.84,0.35"/>
    </edge>
    <edge id=":B_24" function="internal">
        <lane id=":B_24_0" index="0" speed="11.36" length="24.66" shape="1032.55,482.84,0.35 1032.99,479.76,0.35 1036.44,474.01,0.35 1042.19,470.56,0.35 1050.24,469.41,0.35"/>
    </edge>
    <edge id=":B_6" function="internal">
        <lane id=":B_6_0" index="0" speed="7.33" length="11.73" shape="1050.24,482.21,0.35 1046.39,482.56,0.35 1043.64,483.61,0.35 1041.99,485.36,0.35 1041.44,487.81,0.35"/>
    </edge>
    <edge id=":B_7" function="internal">
        <lane id=":B_7_0" index="0" speed="45.00" length="33.75" shape="1050.24,482.21,0.35 1039.98,481.71,0.35 1032.73,480.61,0.34 1025.84,479.51,0.34 1016.64,479.01,0.34"/>
        <lane id=":B_7_1" index="1" speed="45.00" length="33.75" shape="1050.24,479.01,0.35 1039.98,478.51,0.35 1032.73,477.41,0.34 1025.84,476.31,0.34 1016.64,475.81,0.34"/>
        <lane id=":B_7_2" index="2" speed="45.00" length="33.75" shape="1050.24,475.81,0.35 1039.98,475.31,0.35 1032.73,474.21,0.34 1025.84,473.11,0.34 1016.64,472.61,0.34"/>
        <lane id=":B_7_3" index="3" speed="45.00" length="33.75" shape="1050.24,472.61,0.35 1016.64,472.61,0.34"/>
    </edge>
    <edge id=":B_11" function="internal">
        <lane id=":B_11_0" index="0" speed="11.36" length="5.01" shape="1050.24,472.61,0.35 1045.27,471.90,0.35"/>
    </edge>
    <edge id=":B_25" function="internal">
        <lane id=":B_25_0" index="0" speed="11.36" length="24.66" shape="1045.27,471.90,0.35 1042.19,471.46,0.35 1036.44,468.01,0.35 1032.99,462.26,0.35 1031.84,454.21,0.35"/>
    </edge>
    <edge id=":B_12" function="internal">
        <lane id=":B_12_0" index="0" speed="7.33" length="11.73" shape="1044.64,454.21,0.35 1044.99,458.06,0.35 1046.04,460.81,0.35 1047.79,462.46,0.35 1050.24,463.01,0.35"/>
    </edge>
    <edge id=":B_13" function="internal">
        <lane id=":B_13_0" index="0" speed="45.00" length="33.75" shape="1044.64,454.21,0.35 1044.14,464.47,0.35 1043.04,471.71,0.35 1041.94,478.60,0.35 1041.44,487.81,0.35"/>
        <lane id=":B_13_1" index="1" speed="45.00" length="33.75" shape="1041.44,454.21,0.35 1040.94,464.47,0.35 1039.84,471.71,0.35 1038.74,478.60,0.35 1038.24,487.81,0.35"/>
        <lane id=":B_13_2" index="2" speed="45.00" length="33.75" shape="1038.24,454.21,0.35 1037.74,464.47,0.35 1036.64,471.71,0.35 1035.54,478.60,0.35 1035.04,487.81,0.35"/>
        <lane id=":B_13_3" index="3" speed="45.00" length="33.75" shape="1035.04,454.21,0.35 1035.04,487.81,0.35"/>
    </edge>
    <edge id=":B_17" function="internal">
        <lane id=":B_17_0" index="0" speed="11.36" length="5.01" shape="1035.04,454.21,0.35 1034.33,459.17,0.35"/>
    </edge>
    <edge id=":B_26" function="internal">
        <lane id=":B_26_0" index="0" speed="11.36" length="24.66" shape="1034.33,459.17,0.35 1033.89,462.26,0.35 1030.44,468.01,0.34 1024.69,471.46,0.34 1016.64,472.61,0.34"/>
    </edge>
    <edge id=":B_18" function="internal">
        <lane id=":B_18_0" index="0" speed="7.33" length="11.73" shape="1016.64,459.81,0.34 1020.49,459.46,0.34 1023.24,458.41,0.34 1024.89,456.66,0.35 1025.44,454.21,0.35"/>
    </edge>
    <edge id=":B_19" function="internal">
        <lane id=":B_19_0" index="0" speed="45.00" length="33.75" shape="1016.64,459.81,0.34 1026.90,460.31,0.34 1034.14,461.41,0.34 1041.03,462.51,0.35 1050.24,463.01,0.35"/>
        <lane id=":B_19_1" index="1" speed="45.00" length="33.75" shape="1016.64,463.01,0.34 1026.90,463.51,0.34 1034.14,464.61,0.34 1041.03,465.71,0.35 1050.24,466.21,0.35"/>
        <lane id=":B_19_2" index="2" speed="45.00" length="33.75" shape="1016.64,466.21,0.34 1026.90,466.71,0.34 1034.14,467.81,0.34 1041.03,468.91,0.35 1050.24,469.41,0.35"/>
        <lane id=":B_19_3" index="3" speed="45.00" length="33.75" shape="1016.64,469.41,0.34 1050.24,469.41,0.35"/>
    </edge>
    <edge id=":B_23" function="internal">
        <lane id=":B_23_0" index="0" speed="11.36" length="5.01" shape="1016.64,469.41,0.34 1021.60,470.11,0.34"/>
    </edge>
    <edge id=":B_27" function="internal">
        <lane id=":B_27_0" index="0" speed="11.36" length="24.66" shape="1021.60,470.11,0.34 1024.69,470.56,0.34 1030.44,474.01,0.34 1033.89,479.76,0.35 1035.04,487.81,0.35"/>
    </edge>
    <edge id=":BA_0" function="internal">
        <lane id=":BA_0_0" index="0" speed="3.65" length="4.67" shape="1035.04,854.98,0.35 1034.24,856.18,0.35 1033.44,856.58,0.35 1032.64,856.18,0.35 1031.84,854.98,0.35"/>
    </edge>
    <edge id=":BB_0" function="internal">
        <lane id=":BB_0_0" index="0" speed="3.65" length="4.67" shape="1417.41,469.41,0.35 1418.61,470.21,0.35 1419.01,471.01,0.35 1418.61,471.81,0.35 1417.41,472.61,0.35"/>
    </edge>
    <edge id=":BC_0" function="internal">
        <lane id=":BC_0_0" index="0" speed="3.65" length="4.67" shape="1031.84,87.03,0.35 1032.64,85.83,0.35 1033.44,85.43,0.35 1034.24,85.83,0.35 1035.04,87.03,0.35"/>
    </edge>
    <edge id=":C_0" function="internal">
        <lane id=":C_0_0" index="0" speed="8.10" length="14.57" shape="644.67,252.30,-4.45 643.92,249.85,-4.45 641.67,248.10,-4.45 637.92,247.05,-4.45 632.67,246.70,-4.45"/>
    </edge>
    <edge id=":C_1" function="internal">
        <lane id=":C_1_0" index="0" speed="30.00" length="34.33" shape="644.67,252.30,-4.45 643.67,245.24,-4.45 641.47,238.17,-4.45 639.27,229.76,-4.45 638.27,218.70,-4.45"/>
        <lane id=":C_1_1" index="1" speed="30.00" length="34.33" shape="647.87,252.30,-4.45 646.87,245.24,-4.45 644.67,238.17,-4.45 642.47,229.76,-4.45 641.47,218.70,-4.45"/>
    </edge>
    <edge id=":C_3" function="internal">
        <lane id=":C_3_0" index="0" speed="11.36" length="15.40" shape="647.87,252.30,-4.45 649.02,244.25,-4.45 652.47,238.50,-4.45 652.95,238.21,-4.45"/>
    </edge>
    <edge id=":C_16" function="internal">
        <lane id=":C_16_0" index="0" speed="11.36" length="14.27" shape="652.95,238.21,-4.45 658.22,235.05,-4.45 666.27,233.90,-4.45"/>
    </edge>
    <edge id=":C_4" function="internal">
        <lane id=":C_4_0" index="0" speed="8.10" length="14.57" shape="666.27,240.30,-4.45 663.82,241.05,-4.45 662.07,243.30,-4.45 661.02,247.05,-4.45 660.67,252.30,-4.45"/>
    </edge>
    <edge id=":C_5" function="internal">
        <lane id=":C_5_0" index="0" speed="30.00" length="34.33" shape="666.27,240.30,-4.45 659.20,241.30,-4.45 652.13,243.50,-4.45 643.72,245.70,-4.45 632.67,246.70,-4.45"/>
        <lane id=":C_5_1" index="1" speed="30.00" length="34.33" shape="666.27,237.10,-4.45 659.20,238.10,-4.45 652.13,240.30,-4.45 643.72,242.50,-4.45 632.67,243.50,-4.45"/>
    </edge>
    <edge id=":C_7" function="internal">
        <lane id=":C_7_0" index="0" speed="11.36" length="15.40" shape="666.27,237.10,-4.45 658.22,235.95,-4.45 652.47,232.50,-4.45 652.18,232.02,-4.45"/>
    </edge>
    <edge id=":C_17" function="internal">
        <lane id=":C_17_0" index="0" speed="11.36" length="14.27" shape="652.18,232.02,-4.45 649.02,226.75,-4.45 647.87,218.70,-4.45"/>
    </edge>
    <edge id=":C_8" function="internal">
        <lane id=":C_8_0" index="0" speed="8.10" length="14.57" shape="654.27,218.70,-4.45 655.02,221.15,-4.45 657.27,222.90,-4.45 661.02,223.95,-4.45 666.27,224.30,-4.45"/>
    </edge>
    <edge id=":C_9" function="internal">
        <lane id=":C_9_0" index="0" speed="30.00" length="34.33" shape="654.27,218.70,-4.45 655.27,225.77,-4.45 657.47,232.84,-4.45 659.67,241.24,-4.45 660.67,252.30,-4.45"/>
        <lane id=":C_9_1" index="1" speed="30.00" length="34.33" shape="651.07,218.70,-4.45 652.07,225.77,-4.45 654.27,232.84,-4.45 656.47,241.24,-4.45 657.47,252.30,-4.45"/>
    </edge>
    <edge id=":C_11" function="internal">
        <lane id=":C_11_0" index="0" speed="11.36" length="15.40" shape="651.07,218.70,-4.45 649.92,226.75,-4.45 646.47,232.50,-4.45 645.98,232.79,-4.45"/>
    </edge>
    <edge id=":C_18" function="internal">
        <lane id=":C_18_0" index="0" speed="11.36" length="14.27" shape="645.98,232.79,-4.45 640.72,235.95,-4.45 632.67,237.10,-4.45"/>
    </edge>
    <edge id=":C_12" function="internal">
        <lane id=":C_12_0" index="0" speed="8.10" length="14.57" shape="632.67,230.70,-4.45 635.12,229.95,-4.45 636.87,227.70,-4.45 637.92,223.95,-4.45 638.27,218.70,-4.45"/>
    </edge>
    <edge id=":C_13" function="internal">
        <lane id=":C_13_0" index="0" speed="30.00" length="34.33" shape="632.67,230.70,-4.45 639.73,229.70,-4.45 646.80,227.50,-4.45 655.21,225.30,-4.45 666.27,224.30,-4.45"/>
        <lane id=":C_13_1" index="1" speed="30.00" length="34.33" shape="632.67,233.90,-4.45 639.73,232.90,-4.45 646.80,230.70,-4.45 655.21,228.50,-4.45 666.27,227.50,-4.45"/>
    </edge>
    <edge id=":C_15" function="internal">
        <lane id=":C_15_0" index="0" speed="11.36" length="15.40" shape="632.67,233.90,-4.45 640.72,235.05,-4.45 646.47,238.50,-4.45 646.76,238.99,-4.45"/>
    </edge>
    <edge id=":C_19" function="internal">
        <lane id=":C_19_0" index="0" speed="11.36" length="14.27" shape="646.76,238.99,-4.45 649.92,244.25,-4.45 651.07,252.30,-4.45"/>
    </edge>
    <edge id=":CA_0" function="internal">
        <lane id=":CA_0_0" index="0" speed="3.65" length="4.67" shape="884.97,233.90,-4.45 886.17,234.70,-4.45 886.57,235.50,-4.45 886.17,236.30,-4.45 884.97,237.10,-4.45"/>
    </edge>
    <edge id=":CB_0" function="internal">
        <lane id=":CB_0_0" index="0" speed="3.65" length="4.67" shape="647.87,0.00,-4.45 648.67,-1.20,-4.45 649.47,-1.60,-4.45 650.27,-1.20,-4.45 651.07,0.00,-4.45"/>
    </edge>
    <edge id=":CC_0" function="internal">
        <lane id=":CC_0_0" index="0" speed="3.65" length="4.67" shape="413.96,237.10,-4.45 412.76,236.30,-4.45 412.36,235.50,-4.45 412.76,234.70,-4.45 413.96,233.90,-4.45"/>
    </edge>
    <edge id=":D_0" function="internal">
        <lane id=":D_0_0" index="0" speed="6.51" length="9.03" shape="316.73,484.61,-2.47 316.38,482.16,-2.47 315.33,480.41,-2.47 313.58,479.36,-2.47 311.13,479.01,-2.47"/>
    </edge>
    <edge id=":D_1" function="internal">
        <lane id=":D_1_0" index="0" speed="40.00" length="27.20" shape="316.73,484.61,-2.47 316.73,457.41,-2.47"/>
        <lane id=":D_1_1" index="1" speed="40.00" length="27.20" shape="319.93,484.61,-2.47 319.93,457.41,-2.47"/>
        <lane id=":D_1_2" index="2" speed="40.00" length="27.20" shape="323.13,484.61,-2.47 323.13,457.41,-2.47"/>
    </edge>
    <edge id=":D_4" function="internal">
        <lane id=":D_4_0" index="0" speed="10.36" length="5.01" shape="323.13,484.61,-2.47 323.84,479.64,-2.45"/>
    </edge>
    <edge id=":D_20" function="internal">
        <lane id=":D_20_0" index="0" speed="10.36" length="19.50" shape="323.84,479.64,-2.45 324.08,477.96,-2.45 326.93,473.21,-2.42 331.68,470.36,-2.40 338.33,469.41,-2.37"/>
    </edge>
    <edge id=":D_5" function="internal">
        <lane id=":D_5_0" index="0" speed="6.51" length="9.03" shape="338.33,479.01,-2.37 335.88,479.36,-2.40 334.13,480.41,-2.42 333.08,482.16,-2.45 332.73,484.61,-2.47"/>
    </edge>
    <edge id=":D_6" function="internal">
        <lane id=":D_6_0" index="0" speed="40.00" length="27.20" shape="338.33,479.01,-2.37 311.13,479.01,-2.47"/>
        <lane id=":D_6_1" index="1" speed="40.00" length="27.20" shape="338.33,475.81,-2.37 311.13,475.81,-2.47"/>
        <lane id=":D_6_2" index="2" speed="40.00" length="27.20" shape="338.33,472.61,-2.37 311.13,472.61,-2.47"/>
    </edge>
    <edge id=":D_9" function="internal">
        <lane id=":D_9_0" index="0" speed="10.36" length="5.01" shape="338.33,472.61,-2.37 333.37,471.90,-2.39"/>
    </edge>
    <edge id=":D_21" function="internal">
        <lane id=":D_21_0" index="0" speed="10.36" length="19.50" shape="333.37,471.90,-2.39 331.68,471.66,-2.40 326.93,468.81,-2.42 324.08,464.06,-2.45 323.13,457.41,-2.47"/>
    </edge>
    <edge id=":D_10" function="internal">
        <lane id=":D_10_0" index="0" speed="6.51" length="9.03" shape="332.73,457.41,-2.47 333.08,459.86,-2.45 334.13,461.61,-2.42 335.88,462.66,-2.40 338.33,463.01,-2.37"/>
    </edge>
    <edge id=":D_11" function="internal">
        <lane id=":D_11_0" index="0" speed="40.00" length="27.20" shape="332.73,457.41,-2.47 332.73,484.61,-2.47"/>
        <lane id=":D_11_1" index="1" speed="40.00" length="27.20" shape="329.53,457.41,-2.47 329.53,484.61,-2.47"/>
        <lane id=":D_11_2" index="2" speed="40.00" length="27.20" shape="326.33,457.41,-2.47 326.33,484.61,-2.47"/>
    </edge>
    <edge id=":D_14" function="internal">
        <lane id=":D_14_0" index="0" speed="10.36" length="5.01" shape="326.33,457.41,-2.47 325.62,462.37,-2.47"/>
    </edge>
    <edge id=":D_22" function="internal">
        <lane id=":D_22_0" index="0" speed="10.36" length="19.50" shape="325.62,462.37,-2.47 325.38,464.06,-2.47 322.53,468.81,-2.47 317.78,471.66,-2.47 311.13,472.61,-2.47"/>
    </edge>
    <edge id=":D_15" function="internal">
        <lane id=":D_15_0" index="0" speed="6.51" length="9.03" shape="311.13,463.01,-2.47 313.58,462.66,-2.47 315.33,461.61,-2.47 316.38,459.86,-2.47 316.73,457.41,-2.47"/>
    </edge>
    <edge id=":D_16" function="internal">
        <lane id=":D_16_0" index="0" speed="40.00" length="27.20" shape="311.13,463.01,-2.47 338.33,463.01,-2.37"/>
        <lane id=":D_16_1" index="1" speed="40.00" length="27.20" shape="311.13,466.21,-2.47 338.33,466.21,-2.37"/>
        <lane id=":D_16_2" index="2" speed="40.00" length="27.20" shape="311.13,469.41,-2.47 338.33,469.41,-2.37"/>
    </edge>
    <edge id=":D_19" function="internal">
        <lane id=":D_19_0" index="0" speed="10.36" length="5.01" shape="311.13,469.41,-2.47 316.10,470.11,-2.47"/>
    </edge>
    <edge id=":D_23" function="internal">
        <lane id=":D_23_0" index="0" speed="10.36" length="19.50" shape="316.10,470.11,-2.47 317.78,470.36,-2.47 322.53,473.21,-2.47 325.38,477.96,-2.47 326.33,484.61,-2.47"/>
    </edge>
    <edge id=":DA_0" function="internal">
        <lane id=":DA_0_0" index="0" speed="3.65" length="4.67" shape="323.13,146.27,-2.47 323.93,145.07,-2.47 324.73,144.67,-2.47 325.53,145.07,-2.47 326.33,146.27,-2.47"/>
    </edge>
    <edge id=":DB_0" function="internal">
        <lane id=":DB_0_0" index="0" speed="3.65" length="4.67" shape="0.00,472.61,-2.47 -1.20,471.81,-2.47 -1.60,471.01,-2.47 -1.20,470.21,-2.47 0.00,469.41,-2.47"/>
    </edge>
    <edge id=":DC_0" function="internal">
        <lane id=":DC_0_0" index="0" speed="3.65" length="4.67" shape="326.33,795.74,-2.47 325.53,796.94,-2.47 324.73,797.34,-2.47 323.93,796.94,-2.47 323.13,795.74,-2.47"/>
    </edge>
    <edge id=":TL_0" function="internal">
        <lane id=":TL_0_0" index="0" speed="6.51" length="9.04" shape="641.47,484.61,0.17 641.12,482.16,0.09 640.07,480.41,0.03 638.32,479.36,-0.03 635.87,479.01,-0.10"/>
    </edge>
    <edge id=":TL_1" function="internal">
        <lane id=":TL_1_0" index="0" speed="30.00" length="30.54" shape="641.47,484.61,0.17 641.97,474.93,0.11 643.07,467.53,0.07 644.17,461.07,0.04 644.67,454.21"/>
        <lane id=":TL_1_1" index="1" speed="30.00" length="30.54" shape="644.67,484.61,0.17 645.17,474.93,0.11 646.27,467.53,0.07 647.37,461.07,0.04 647.87,454.21"/>
        <lane id=":TL_1_2" index="2" speed="30.00" length="30.54" shape="647.87,484.61,0.17 647.87,454.21"/>
    </edge>
    <edge id=":TL_4" function="internal">
        <lane id=":TL_4_0" index="0" speed="10.88" length="4.19" shape="647.87,484.61,0.17 648.58,480.48,0.14"/>
    </edge>
    <edge id=":TL_21" function="internal">
        <lane id=":TL_21_0" index="0" speed="10.88" length="22.96" shape="648.58,480.48,0.14 649.02,477.96,0.13 652.47,473.21,0.10 658.22,470.36,0.06 666.27,469.41,0.02"/>
    </edge>
    <edge id=":TL_5" function="internal">
        <lane id=":TL_5_0" index="0" speed="8.10" length="14.57" shape="666.27,479.01,0.02 661.02,479.36,0.07 657.27,480.41,0.11 655.02,482.16,0.14 654.27,484.61,0.17"/>
    </edge>
    <edge id=":TL_6" function="internal">
        <lane id=":TL_6_0" index="0" speed="42.50" length="30.40" shape="666.27,479.01,0.02 635.87,479.01,-0.10"/>
        <lane id=":TL_6_1" index="1" speed="42.50" length="30.40" shape="666.27,475.81,0.02 635.87,475.81,-0.10"/>
        <lane id=":TL_6_2" index="2" speed="42.50" length="30.40" shape="666.27,472.61,0.02 635.87,472.61,-0.10"/>
    </edge>
    <edge id=":TL_9" function="internal">
        <lane id=":TL_9_0" index="0" speed="11.36" length="11.70" shape="666.27,472.61,0.02 658.22,471.46,0.01 655.16,469.62,0.01"/>
    </edge>
    <edge id=":TL_22" function="internal">
        <lane id=":TL_22_0" index="0" speed="11.36" length="17.98" shape="655.16,469.62,0.01 652.47,468.01,0.01 649.02,462.26,0.00 647.87,454.21"/>
    </edge>
    <edge id=":TL_10" function="internal">
        <lane id=":TL_10_0" index="0" speed="6.51" length="9.03" shape="660.67,454.21 661.02,456.66,0.00 662.07,458.41,0.01 663.82,459.46,0.01 666.27,459.81,0.02"/>
    </edge>
    <edge id=":TL_11" function="internal">
        <lane id=":TL_11_0" index="0" speed="30.00" length="30.86" shape="660.67,454.21 659.67,464.10,0.05 657.47,471.48,0.09 655.27,477.82,0.13 654.27,484.61,0.17"/>
        <lane id=":TL_11_1" index="1" speed="30.00" length="30.86" shape="657.47,454.21 656.47,464.10,0.05 654.27,471.48,0.09 652.07,477.82,0.13 651.07,484.61,0.17"/>
        <lane id=":TL_11_2" index="2" speed="30.00" length="30.86" shape="654.27,454.21 653.77,464.00,0.05 652.67,471.39,0.09 651.57,477.79,0.13 651.07,484.61,0.17"/>
        <lane id=":TL_11_3" index="3" speed="30.00" length="30.86" shape="651.07,454.21 651.07,484.61,0.17"/>
    </edge>
    <edge id=":TL_15" function="internal">
        <lane id=":TL_15_0" index="0" speed="10.88" length="6.03" shape="651.07,454.21 650.36,460.19,-0.02"/>
    </edge>
    <edge id=":TL_23" function="internal">
        <lane id=":TL_23_0" index="0" speed="10.88" length="21.12" shape="650.36,460.19,-0.02 650.12,462.26,-0.03 647.27,468.01,-0.06 642.52,471.46,-0.08 635.87,472.61,-0.10"/>
    </edge>
    <edge id=":TL_16" function="internal">
        <lane id=":TL_16_0" index="0" speed="8.00" length="14.19" shape="635.87,463.01,-0.10 639.72,462.46,-0.08 642.47,460.81,-0.05 644.12,458.06,-0.03 644.67,454.21"/>
    </edge>
    <edge id=":TL_17" function="internal">
        <lane id=":TL_17_0" index="0" speed="42.50" length="30.62" shape="635.87,463.01,-0.10 644.79,462.51,-0.07 650.96,461.41,-0.04 657.18,460.31,-0.02 666.27,459.81,0.02"/>
        <lane id=":TL_17_1" index="1" speed="42.50" length="30.62" shape="635.87,466.21,-0.10 644.79,465.71,-0.07 650.96,464.61,-0.04 657.18,463.51,-0.02 666.27,463.01,0.02"/>
        <lane id=":TL_17_2" index="2" speed="42.50" length="30.62" shape="635.87,469.41,-0.10 644.79,468.91,-0.07 650.96,467.81,-0.04 657.18,466.71,-0.02 666.27,466.21,0.02"/>
    </edge>
    <edge id=":TL_20" function="internal">
        <lane id=":TL_20_0" index="0" speed="10.36" length="5.01" shape="635.87,469.41,-0.10 640.83,470.11,-0.05"/>
    </edge>
    <edge id=":TL_24" function="internal">
        <lane id=":TL_24_0" index="0" speed="10.36" length="19.50" shape="640.83,470.11,-0.05 642.52,470.36,-0.03 647.27,473.21,0.03 650.12,477.96,0.09 651.07,484.61,0.17"/>
    </edge>

    <edge id="A2AA" from="A" to="AA" priority="-1">
        <lane id="A2AA_0" index="0" speed="30.00" length="307.62" shape="635.87,800.23,3.92 328.25,800.23,3.92"/>
        <lane id="A2AA_1" index="1" speed="30.00" length="307.62" shape="635.87,797.03,3.92 328.25,797.03,3.92"/>
        <lane id="A2AA_2" index="2" speed="30.00" length="307.62" shape="635.87,793.83,3.92 328.25,793.83,3.92"/>
    </edge>
    <edge id="A2AB" from="A" to="AB" priority="-1">
        <lane id="A2AB_0" index="0" speed="30.00" length="307.62" shape="657.47,805.83,3.92 657.47,1113.45,3.92"/>
        <lane id="A2AB_1" index="1" speed="30.00" length="307.62" shape="654.27,805.83,3.92 654.27,1113.45,3.92"/>
        <lane id="A2AB_2" index="2" speed="30.00" length="307.62" shape="651.07,805.83,3.92 651.07,1113.45,3.92"/>
    </edge>
    <edge id="A2AC" from="A" to="AC" priority="-1">
        <lane id="A2AC_0" index="0" speed="30.00" length="307.62" shape="663.07,784.23,3.92 970.69,784.23,3.92"/>
        <lane id="A2AC_1" index="1" speed="30.00" length="307.62" shape="663.07,787.43,3.92 970.69,787.43,3.92"/>
        <lane id="A2AC_2" index="2" speed="30.00" length="307.62" shape="663.07,790.63,3.92 970.69,790.63,3.92"/>
    </edge>
    <edge id="A2TL" from="A" to="TL" priority="-1">
        <lane id="A2TL_0" index="0" speed="30.00" length="294.04" shape="641.47,778.63,3.75 641.47,484.61,0.17"/>
        <lane id="A2TL_1" index="1" speed="30.00" length="294.04" shape="644.67,778.63,3.75 644.67,484.61,0.17"/>
        <lane id="A2TL_2" index="2" speed="30.00" length="294.04" shape="647.87,778.63,3.75 647.87,484.61,0.17"/>
    </edge>
    <edge id="AA2A" from="AA" to="A" priority="-1">
        <lane id="AA2A_0" index="0" speed="30.00" length="307.62" shape="328.25,787.43,3.92 635.87,787.43,3.92"/>
        <lane id="AA2A_1" index="1" speed="30.00" length="307.62" shape="328.25,790.63,3.92 635.87,790.63,3.92"/>
    </edge>
    <edge id="AB2A" from="AB" to="A" priority="-1">
        <lane id="AB2A_0" index="0" speed="30.00" length="307.62" shape="644.67,1113.45,3.92 644.67,805.83,3.92"/>
        <lane id="AB2A_1" index="1" speed="30.00" length="307.62" shape="647.87,1113.45,3.92 647.87,805.83,3.92"/>
    </edge>
    <edge id="AC2A" from="AC" to="A" priority="-1">
        <lane id="AC2A_0" index="0" speed="30.00" length="307.62" shape="970.69,797.03,3.92 663.07,797.03,3.92"/>
        <lane id="AC2A_1" index="1" speed="30.00" length="307.62" shape="970.69,793.83,3.92 663.07,793.83,3.92"/>
    </edge>
    <edge id="B2BA" from="B" to="BA" priority="-1">
        <lane id="B2BA_0" index="0" speed="45.00" length="367.17" shape="1041.44,487.81,0.35 1041.44,854.98,0.35"/>
        <lane id="B2BA_1" index="1" speed="45.00" length="367.17" shape="1038.24,487.81,0.35 1038.24,854.98,0.35"/>
        <lane id="B2BA_2" index="2" speed="45.00" length="367.17" shape="1035.04,487.81,0.35 1035.04,854.98,0.35"/>
    </edge>
    <edge id="B2BB" from="B" to="BB" priority="-1">
        <lane id="B2BB_0" index="0" speed="45.00" length="367.17" shape="1050.24,463.01,0.35 1417.41,463.01,0.35"/>
        <lane id="B2BB_1" index="1" speed="45.00" length="367.17" shape="1050.24,466.21,0.35 1417.41,466.21,0.35"/>
        <lane id="B2BB_2" index="2" speed="45.00" length="367.17" shape="1050.24,469.41,0.35 1417.41,469.41,0.35"/>
    </edge>
    <edge id="B2BC" from="B" to="BC" priority="-1">
        <lane id="B2BC_0" index="0" speed="45.00" length="367.17" shape="1025.44,454.21,0.35 1025.44,87.03,0.35"/>
        <lane id="B2BC_1" index="1" speed="45.00" length="367.17" shape="1028.64,454.21,0.35 1028.64,87.03,0.35"/>
        <lane id="B2BC_2" index="2" speed="45.00" length="367.17" shape="1031.84,454.21,0.35 1031.84,87.03,0.35"/>
    </edge>
    <edge id="B2TL" from="B" to="TL" priority="-1">
        <lane id="B2TL_0" index="0" speed="45.00" length="350.37" shape="1016.64,479.01,0.34 666.27,479.01,0.02"/>